data_epoxide
_audit_creation_date              2017-11-14
_audit_creation_method
;
Olex2 1.2
(compiled 2017.08.10 svn.r3458 for OlexSys, GUI svn.r5381)
;
_publ_contact_author_address      ?
_publ_contact_author_email        ?
_publ_contact_author_id_orcid     ?
_publ_contact_author_name         ''
_publ_contact_author_phone        ?
_publ_section_references
;
Bourhis, L.J., Dolomanov, O.V., Gildea, R.J., Howard, J.A.K., Puschmann, H.
 (2015). Acta Cryst. A71, 59-75.

Dolomanov, O.V., Bourhis, L.J., Gildea, R.J, Howard, J.A.K. & Puschmann, H.
 (2009), J. Appl. Cryst. 42, 339-341.
;
_chemical_formula_moiety          'C2 H4 O'
_chemical_formula_sum             'C2 H4 O'
_chemical_formula_weight          44.05
loop_
  _atom_type_symbol
  _atom_type_scat_dispersion_real
  _atom_type_scat_dispersion_imag
  _atom_type_scat_Cromer_Mann_a1
  _atom_type_scat_Cromer_Mann_a2
  _atom_type_scat_Cromer_Mann_a3
  _atom_type_scat_Cromer_Mann_a4
  _atom_type_scat_Cromer_Mann_b1
  _atom_type_scat_Cromer_Mann_b2
  _atom_type_scat_Cromer_Mann_b3
  _atom_type_scat_Cromer_Mann_b4
  _atom_type_scat_Cromer_Mann_c
  _atom_type_scat_source
  _atom_type_scat_dispersion_source
 H 0.00000 0.00000 0.49300 0.32291 0.14019 0.04081 10.51090 26.12570 3.14236
 57.79970 0.0030380000826
 'International Tables Volume C Table 6.1.1.4 (pp. 500-502)'
 'Henke, Gullikson and Davis, At. Data and Nucl. Data Tables, 1993, 54, 2'
 C 0.00347 0.00161 2.31000 1.02000 1.58860 0.86500 20.84390 10.20750 0.56870
 51.65120 0.215599998832
 'International Tables Volume C Table 6.1.1.4 (pp. 500-502)'
 'Henke, Gullikson and Davis, At. Data and Nucl. Data Tables, 1993, 54, 2'
 O 0.01158 0.00611 3.04850 2.28680 1.54630 0.86700 13.27710 5.70110 0.32390
 32.90890 0.250800013542
 'International Tables Volume C Table 6.1.1.4 (pp. 500-502)'
 'Henke, Gullikson and Davis, At. Data and Nucl. Data Tables, 1993, 54, 2'

_space_group_crystal_system       'monoclinic'
_space_group_IT_number            14
_space_group_name_H-M_alt         'P 1 21/n 1'
_space_group_name_Hall            '-P 2ybc (x-z,y,z)'
loop_
  _space_group_symop_id
  _space_group_symop_operation_xyz
 1 x,y,z
 2 -x+1/2,y+1/2,-z+1/2
 3 -x,-y,-z
 4 x-1/2,-y-1/2,z-1/2

_symmetry_Int_Tables_number       14
_cell_length_a                    4.633(5)
_cell_length_b                    8.400(1)
_cell_length_c                    6.577(3)
_cell_angle_alpha                 90
_cell_angle_beta                  100.37(6)
_cell_angle_gamma                 90
_cell_volume                      251.8(3)
_cell_formula_units_Z             4
_exptl_absorpt_coefficient_mu     0.092
_exptl_crystal_density_diffrn     1.1621
_exptl_crystal_F_000              96.0645
_diffrn_reflns_av_R_equivalents   0.0000
_diffrn_reflns_av_unetI/netI      0.0400
_diffrn_reflns_limit_h_max        6
_diffrn_reflns_limit_h_min        -9
_diffrn_reflns_limit_k_max        16
_diffrn_reflns_limit_k_min        0
_diffrn_reflns_limit_l_max        13
_diffrn_reflns_limit_l_min        -6
_diffrn_reflns_number             2081
_diffrn_reflns_theta_full         44.9952
_diffrn_reflns_theta_max          45.00
_diffrn_reflns_theta_min          3.98
_diffrn_measured_fraction_theta_full 1.0000
_diffrn_measured_fraction_theta_max 1.0000
_diffrn_radiation_type            'Mo K\a'
_diffrn_radiation_wavelength      0.71068
_reflns_Friedel_coverage          0.0
_reflns_limit_h_max               6
_reflns_limit_h_min               -9
_reflns_limit_k_max               16
_reflns_limit_k_min               0
_reflns_limit_l_max               13
_reflns_limit_l_min               -6
_reflns_number_gt                 1306
_reflns_number_total              2081
_reflns_threshold_expression      I>=2u(I)
_computing_molecular_graphics     'Olex2 (Dolomanov et al., 2009)'
_computing_publication_material   'Olex2 (Dolomanov et al., 2009)'
_computing_structure_refinement   'olex2.refine (Bourhis et al., 2015)'
_refine_diff_density_max          0.2329
_refine_diff_density_min          -0.3420
_refine_diff_density_rms          0.0584
_refine_ls_d_res_high             0.5026
_refine_ls_d_res_low              5.1256
_refine_ls_goodness_of_fit_ref    0.9251
_refine_ls_hydrogen_treatment     refall
_refine_ls_matrix_type            full
_refine_ls_number_constraints     0
_refine_ls_number_parameters      44
_refine_ls_number_reflns          2081
_refine_ls_number_restraints      0
_refine_ls_R_factor_all           0.0654
_refine_ls_R_factor_gt            0.0355
_refine_ls_restrained_S_all       0.9251
_refine_ls_shift/su_max           0.0008
_refine_ls_shift/su_mean          0.0001
_refine_ls_structure_factor_coef  Fsqd
_refine_ls_weighting_details
'w=1/[\s^2^(Fo^2^)+(0.0585P)^2^] where P=(Fo^2^+2Fc^2^)/3'
_refine_ls_weighting_scheme       calc
_refine_ls_wR_factor_gt           0.0967
_refine_ls_wR_factor_ref          0.1067
_olex2_refinement_description
;
;
loop_
  _atom_site_label
  _atom_site_type_symbol
  _atom_site_fract_x
  _atom_site_fract_y
  _atom_site_fract_z
  _atom_site_U_iso_or_equiv
  _atom_site_adp_type
  _atom_site_occupancy
  _atom_site_refinement_flags_posn
 O1 O 0.11697(8) 0.83091(4) 0.12413(5) 0.02985(9) Uani 1.000000 .
 C2 C 0.14828(10) 0.93864(5) 0.29602(7) 0.02874(9) Uani 1.000000 .
 H2a H 0.2636(19) 0.8950(9) 0.4270(14) 0.046(2) Uiso 1.000000 .
 H2b H 0.1683(18) 1.0526(10) 0.2654(13) 0.043(2) Uiso 1.000000 .
 C3 C -0.13426(11) 0.86471(6) 0.21833(7) 0.03256(10) Uani 1.000000 .
 H3a H -0.289(2) 0.9212(9) 0.1325(15) 0.054(2) Uiso 1.000000 .
 H3b H -0.197(2) 0.7768(11) 0.2930(15) 0.054(2) Uiso 1.000000 .

loop_
  _atom_site_aniso_label
  _atom_site_aniso_U_11
  _atom_site_aniso_U_22
  _atom_site_aniso_U_33
  _atom_site_aniso_U_12
  _atom_site_aniso_U_13
  _atom_site_aniso_U_23
 O1 0.03465(17) 0.02651(13) 0.03008(15) 0.00253(10) 0.01035(11) -0.00485(10)
 C2 0.0338(2) 0.02520(15) 0.02731(16) 0.00078(13) 0.00579(13) -0.00238(12)
 C3 0.0317(2) 0.03395(19) 0.0345(2) -0.00312(15) 0.01242(16) 0.00001(15)

loop_
  _geom_bond_atom_site_label_1
  _geom_bond_atom_site_label_2
  _geom_bond_distance
  _geom_bond_site_symmetry_2
  _geom_bond_publ_flag
 O1 C2 1.4349(7) . ?
 O1 C3 1.4418(13) . ?
 C2 H2a 0.998(9) . ?
 C2 H2b 0.986(9) . ?
 C2 C3 1.4558(15) . ?
 C3 H3a 0.955(10) . ?
 C3 H3b 0.961(9) . ?

loop_
  _geom_angle_atom_site_label_1
  _geom_angle_atom_site_label_2
  _geom_angle_atom_site_label_3
  _geom_angle
  _geom_angle_site_symmetry_1
  _geom_angle_site_symmetry_3
  _geom_angle_publ_flag
 C3 O1 C2 60.81(3) . . ?
 H2a C2 O1 114.3(5) . . ?
 H2b C2 O1 116.8(5) . . ?
 H2b C2 H2a 118.5(7) . . ?
 C3 C2 O1 59.83(3) . . ?
 C3 C2 H2a 117.0(5) . . ?
 C3 C2 H2b 117.0(5) . . ?
 C2 C3 O1 59.36(3) . . ?
 H3a C3 O1 114.9(6) . . ?
 H3a C3 C2 121.8(6) . . ?
 H3b C3 O1 114.3(5) . . ?
 H3b C3 C2 119.0(6) . . ?
 H3b C3 H3a 114.8(9) . . ?

loop_
  _refln_index_h
  _refln_index_k
  _refln_index_l
  _refln_F_squared_meas
  _refln_F_squared_sigma
 -9 0 1 0.15 0.23
 -9 0 3 0.03 0.17
 -9 0 5 0.25 0.2
 -9 1 0 0.08 0.19
 -9 1 1 0.07 0.21
 -9 1 2 0.03 0.14
 -9 1 3 0.19 0.16
 -9 1 4 0.2 0.19
 -9 2 0 0.09 0.23
 -9 2 1 0.04 0.15
 -9 2 2 0.13 0.2
 -9 2 3 0.17 0.2
 -9 2 4 0.09 0.2
 -9 3 1 0.07 0.22
 -9 3 2 0.01 0.07
 -9 3 3 0.06 0.2
 -8 0 -4 0.12 0.25
 -8 0 -2 0.07 0.26
 -8 0 0 1.97 0.18
 -8 0 2 3.41 0.2
 -8 0 4 0.43 0.17
 -8 0 6 0.64 0.18
 -8 0 8 1.3 0.2
 -8 1 -4 0.17 0.2
 -8 1 -3 0.13 0.2
 -8 1 -2 0.16 0.18
 -8 1 -1 0.13 0.19
 -8 1 0 0.02 0.11
 -8 1 1 0.2 0.14
 -8 1 2 0.57 0.18
 -8 1 3 0.47 0.35
 -8 1 4 0.44 0.21
 -8 1 5 0.14 0.2
 -8 1 6 0.14 0.17
 -8 1 7 0.13 0.2
 -8 1 8 0.05 0.19
 -8 2 -4 0.2 0.2
 -8 2 -3 0.18 0.16
 -8 2 -2 0.06 0.2
 -8 2 -1 0.44 0.13
 -8 2 0 0.02 0.1
 -8 2 1 2.53 0.69
 -8 2 2 0.11 0.2
 -8 2 3 1.05 0.34
 -8 2 4 0.63 0.12
 -8 2 5 0.35 0.21
 -8 2 6 0.22 0.14
 -8 2 7 0.97 0.13
 -8 2 8 0.01 0.05
 -8 3 -3 0.37 0.24
 -8 3 -2 0.15 0.21
 -8 3 -1 0.91 0.14
 -8 3 0 0.33 0.13
 -8 3 1 0.06 0.2
 -8 3 2 0.16 0.19
 -8 3 3 0.84 0.33
 -8 3 4 0.24 0.18
 -8 3 5 0.04 0.17
 -8 3 6 0.14 0.17
 -8 3 7 0.05 0.18
 -8 3 8 0.12 0.22
 -8 4 -3 0.09 0.23
 -8 4 -2 0.07 0.21
 -8 4 -1 0.1 0.21
 -8 4 0 0.65 0.2
 -8 4 1 0.09 0.19
 -8 4 2 0.65 0.12
 -8 4 3 0.28 0.13
 -8 4 4 0.1 0.2
 -8 4 5 1.13 0.23
 -8 4 6 0.25 0.14
 -8 4 7 0.04 0.16
 -8 5 -3 0.11 0.19
 -8 5 -2 0.74 0.19
 -8 5 -1 0.1 0.16
 -8 5 0 0.64 0.32
 -8 5 1 0.16 0.2
 -8 5 2 0.1 0.24
 -8 5 3 0.07 0.21
 -8 5 4 0.36 0.13
 -8 5 5 0.06 0.2
 -8 5 6 0.16 0.2
 -8 5 7 0.22 0.19
 -8 6 -2 0.18 0.16
 -8 6 -1 0.02 0.12
 -8 6 0 0.24 0.18
 -8 6 1 0.16 0.21
 -8 6 2 0.22 0.19
 -8 6 3 0.24 0.19
 -8 6 4 0.59 0.14
 -8 6 5 0.23 0.15
 -8 6 6 0.1 0.21
 -8 7 -1 0.47 0.13
 -8 7 0 0.06 0.2
 -8 7 1 0.22 0.19
 -8 7 2 0.61 0.13
 -8 7 3 0.2 0.15
 -8 7 4 0.1 0.18
 -8 7 5 0.07 0.22
 -8 8 1 0.28 0.14
 -8 8 2 0.13 0.2
 -8 8 3 0.13 0.2
 -7 0 -5 0.57 0.18
 -7 0 -3 0.6 0.16
 -7 0 -1 0.12 0.21
 -7 0 1 0.09 0.26
 -7 0 3 4.36 0.19
 -7 0 5 0.91 0.17
 -7 0 7 0.63 0.19
 -7 0 9 0.12 0.24
 -7 1 -6 0.05 0.18
 -7 1 -5 0.23 0.25
 -7 1 -4 0.17 0.18
 -7 1 -3 0.1 0.16
 -7 1 -2 0.55 0.12
 -7 1 -1 0.51 0.12
 -7 1 0 3.92 0.89
 -7 1 1 5.59 1.1
 -7 1 2 5.81 0.92
 -7 1 3 2.1 0.22
 -7 1 4 0.55 0.16
 -7 1 5 0.68 0.12
 -7 1 6 0.22 0.12
 -7 1 7 0.52 0.12
 -7 1 8 0.09 0.2
 -7 1 9 0.01 0.07
 -7 1 10 0.2 0.17
 -7 2 -6 0.16 0.16
 -7 2 -5 0.31 0.24
 -7 2 -4 0.43 0.18
 -7 2 -3 0.08 0.18
 -7 2 -2 0.05 0.17
 -7 2 -1 0.47 0.18
 -7 2 0 0.03 0.11
 -7 2 1 0.13 0.19
 -7 2 2 1.64 0.23
 -7 2 3 1.86 0.37
 -7 2 4 3.36 0.22
 -7 2 5 1.43 0.12
 -7 2 6 0.07 0.2
 -7 2 7 0.06 0.19
 -7 2 8 0.1 0.17
 -7 2 9 0.06 0.2
 -7 2 10 0.27 0.16
 -7 3 -6 0.21 0.15
 -7 3 -5 0.03 0.13
 -7 3 -4 0.11 0.21
 -7 3 -3 0.42 0.14
 -7 3 -2 0.17 0.13
 -7 3 -1 1.79 0.12
 -7 3 0 0.89 0.21
 -7 3 1 2.6 0.47
 -7 3 2 2.33 0.42
 -7 3 3 1.2 0.12
 -7 3 4 0.37 0.21
 -7 3 5 0.41 0.19
 -7 3 6 1.55 0.13
 -7 3 7 0.1 0.17
 -7 3 8 0.15 0.2
 -7 3 9 0.28 0.19
 -7 4 -6 0.11 0.3
 -7 4 -5 0.13 0.2
 -7 4 -4 0.06 0.19
 -7 4 -3 0.04 0.16
 -7 4 -2 0.57 0.19
 -7 4 -1 0.2 0.15
 -7 4 0 0.69 0.12
 -7 4 1 0.42 0.12
 -7 4 2 1.19 0.12
 -7 4 3 2.73 0.2
 -7 4 4 5.26 0.79
 -7 4 5 1.47 0.19
 -7 4 6 0.6 0.12
 -7 4 7 0.1 0.2
 -7 4 8 0.07 0.21
 -7 4 9 0.38 0.13
 -7 5 -5 0.05 0.18
 -7 5 -4 0.1 0.18
 -7 5 -3 0.04 0.15
 -7 5 -2 0.77 0.25
 -7 5 -1 0.13 0.18
 -7 5 0 0.37 0.12
 -7 5 1 0.39 0.13
 -7 5 2 0.13 0.19
 -7 5 3 0.06 0.18
 -7 5 4 0.37 0.12
 -7 5 5 1.49 0.13
 -7 5 6 0.51 0.14
 -7 5 7 0.25 0.14
 -7 5 8 0.4 0.28
 -7 5 9 0.34 0.13
 -7 6 -5 0.1 0.25
 -7 6 -4 0.2 0.16
 -7 6 -3 0.01 0.09
 -7 6 -2 0.11 0.18
 -7 6 -1 0.59 0.16
 -7 6 0 0.17 0.18
 -7 6 1 0.13 0.18
 -7 6 2 0.89 0.33
 -7 6 3 3.37 0.14
 -7 6 4 1.47 0.13
 -7 6 5 1.62 0.13
 -7 6 6 1.5 0.22
 -7 6 7 0.17 0.16
 -7 6 8 1.07 0.13
 -7 7 -4 0.37 0.28
 -7 7 -3 0.15 0.21
 -7 7 -2 0.1 0.18
 -7 7 -1 0.15 0.16
 -7 7 0 0.11 0.21
 -7 7 1 0.63 0.12
 -7 7 2 0.13 0.18
 -7 7 3 0.12 0.18
 -7 7 4 0.24 0.18
 -7 7 5 0.59 0.12
 -7 7 6 0.21 0.18
 -7 7 7 0.04 0.16
 -7 7 8 0.2 0.19
 -7 8 -3 0.53 0.13
 -7 8 -2 0.18 0.16
 -7 8 -1 0.04 0.13
 -7 8 0 0.02 0.11
 -7 8 1 0.35 0.13
 -7 8 2 0.66 0.17
 -7 8 3 0.23 0.21
 -7 8 4 0.85 0.12
 -7 8 5 0.81 0.12
 -7 8 6 0.18 0.15
 -7 8 7 1.86 0.13
 -7 9 -2 0.14 0.21
 -7 9 -1 0.15 0.21
 -7 9 0 0.57 0.3
 -7 9 1 0.14 0.17
 -7 9 2 0.84 0.12
 -7 9 3 0.06 0.2
 -7 9 4 0.1 0.24
 -7 9 5 0.03 0.11
 -7 9 6 0.47 0.13
 -7 10 -1 0.13 0.2
 -7 10 0 0.16 0.2
 -7 10 1 0.14 0.2
 -7 10 2 0.19 0.2
 -7 10 3 0.29 0.19
 -7 10 4 0.02 0.12
 -7 10 5 0.06 0.18
 -6 0 -4 4.01 0.19
 -6 0 -2 0.82 0.19
 -6 0 0 2.3 0.21
 -6 0 2 8.73 0.24
 -6 0 4 0.57 0.18
 -6 0 6 19.43 0.53
 -6 0 8 7.64 0.21
 -6 0 10 0.22 0.2
 -6 1 -5 0.55 0.13
 -6 1 -4 1.65 0.11
 -6 1 -3 1.11 0.11
 -6 1 -2 0.99 0.1
 -6 1 -1 0.01 0.09
 -6 1 0 0.68 0.18
 -6 1 1 1.23 0.21
 -6 1 2 0.24 0.22
 -6 1 3 0.11 0.21
 -6 1 4 9.23 0.49
 -6 1 5 0.69 0.19
 -6 1 6 1.2 0.14
 -6 1 7 0.28 0.12
 -6 1 8 0.82 0.12
 -6 1 9 0.22 0.13
 -6 1 10 0.04 0.15
 -6 1 11 0.25 0.12
 -6 2 -5 2.61 0.43
 -6 2 -4 0.1 0.2
 -6 2 -3 1.48 0.21
 -6 2 -2 2.77 0.12
 -6 2 -1 0.41 0.27
 -6 2 0 2.07 0.26
 -6 2 1 4.22 0.21
 -6 2 2 0.39 0.13
 -6 2 3 1.78 0.13
 -6 2 4 0.28 0.14
 -6 2 5 7.72 0.61
 -6 2 6 0.19 0.12
 -6 2 7 11.46 0.4
 -6 2 8 0.2 0.15
 -6 2 9 0.94 0.12
 -6 2 10 0.66 0.15
 -6 2 11 0.22 0.17
 -6 3 -5 0.07 0.14
 -6 3 -4 0.25 0.13
 -6 3 -3 2.5 0.12
 -6 3 -2 0.03 0.14
 -6 3 -1 0.14 0.21
 -6 3 0 0.11 0.18
 -6 3 1 0.23 0.13
 -6 3 2 0.09 0.19
 -6 3 3 14.93 0.27
 -6 3 4 0.46 0.19
 -6 3 5 13.21 0.69
 -6 3 6 0.16 0.17
 -6 3 7 0.05 0.17
 -6 3 8 0.09 0.17
 -6 3 9 0.83 0.12
 -6 3 10 0.14 0.21
 -6 3 11 0.16 0.18
 -6 4 -5 0.09 0.15
 -6 4 -4 0.54 0.12
 -6 4 -3 2.13 0.12
 -6 4 -2 0.02 0.11
 -6 4 -1 6.29 0.17
 -6 4 0 0.25 0.18
 -6 4 1 0.16 0.19
 -6 4 2 1.01 0.13
 -6 4 3 2.21 0.27
 -6 4 4 0.68 0.11
 -6 4 5 0.17 0.16
 -6 4 6 3.8 0.48
 -6 4 7 0.3 0.12
 -6 4 8 1.06 0.11
 -6 4 9 0.8 0.32
 -6 4 10 0.13 0.19
 -6 5 -5 0.07 0.21
 -6 5 -4 0.47 0.11
 -6 5 -3 0.1 0.18
 -6 5 -2 1.17 0.12
 -6 5 -1 0.23 0.12
 -6 5 0 0.68 0.12
 -6 5 1 1.57 0.12
 -6 5 2 7.12 0.14
 -6 5 3 0.16 0.16
 -6 5 4 18.49 0.37
 -6 5 5 0.53 0.11
 -6 5 6 3.37 0.13
 -6 5 7 0.18 0.14
 -6 5 8 0.54 0.12
 -6 5 9 0.63 0.18
 -6 5 10 0.22 0.15
 -6 6 -5 0.16 0.19
 -6 6 -4 0.03 0.11
 -6 6 -3 0.03 0.12
 -6 6 -2 2.67 0.13
 -6 6 -1 0.15 0.15
 -6 6 0 1.22 0.12
 -6 6 1 0.02 0.09
 -6 6 2 1.37 0.12
 -6 6 3 0.24 0.12
 -6 6 4 0.19 0.17
 -6 6 5 0.35 0.12
 -6 6 6 1.76 0.12
 -6 6 7 0.11 0.18
 -6 6 8 0.19 0.18
 -6 6 9 0.11 0.16
 -6 6 10 0.63 0.13
 -6 7 -5 0.07 0.22
 -6 7 -4 0.42 0.19
 -6 7 -3 0.19 0.14
 -6 7 -2 0.77 0.51
 -6 7 -1 0.68 0.12
 -6 7 0 3.11 0.25
 -6 7 1 2.82 0.3
 -6 7 2 2.3 0.12
 -6 7 3 8.14 0.51
 -6 7 4 0.14 0.14
 -6 7 5 4.12 0.13
 -6 7 6 0.22 0.17
 -6 7 7 0.04 0.17
 -6 7 8 1.24 0.12
 -6 7 9 0.05 0.16
 -6 8 -5 0.43 0.13
 -6 8 -4 0.19 0.15
 -6 8 -3 0.01 0.05
 -6 8 -2 0.12 0.18
 -6 8 -1 0.3 0.14
 -6 8 0 0.03 0.14
 -6 8 1 0.37 0.13
 -6 8 2 0.86 0.17
 -6 8 3 0.47 0.12
 -6 8 4 0.32 0.12
 -6 8 5 1.14 0.13
 -6 8 6 0.52 0.12
 -6 8 7 1.32 0.13
 -6 8 8 0.3 0.14
 -6 8 9 0.16 0.18
 -6 9 -5 0.29 0.14
 -6 9 -4 0.04 0.17
 -6 9 -3 0.47 0.19
 -6 9 -2 0.17 0.15
 -6 9 -1 0.69 0.27
 -6 9 0 0.89 0.27
 -6 9 1 3.3 0.44
 -6 9 2 2.1 0.28
 -6 9 3 0.3 0.12
 -6 9 4 1.14 0.12
 -6 9 5 0.08 0.17
 -6 9 6 0.14 0.18
 -6 9 7 0.9 0.18
 -6 9 8 0.15 0.15
 -6 10 -4 0.32 0.14
 -6 10 -3 0.08 0.23
 -6 10 -2 0.17 0.16
 -6 10 -1 0.2 0.19
 -6 10 0 0.3 0.13
 -6 10 1 0.16 0.15
 -6 10 2 0.2 0.14
 -6 10 3 0.86 0.12
 -6 10 4 0.31 0.13
 -6 10 5 0.19 0.19
 -6 10 6 1.23 0.18
 -6 10 7 0.52 0.13
 -6 11 -3 0.13 0.21
 -6 11 -2 0.19 0.2
 -6 11 -1 0.17 0.2
 -6 11 0 0.9 0.12
 -6 11 1 0.74 0.36
 -6 11 2 0.23 0.15
 -6 11 3 0.07 0.2
 -6 11 4 0.14 0.21
 -6 11 5 0.21 0.17
 -6 11 6 0.51 0.35
 -6 12 -1 0.47 0.15
 -6 12 0 0.1 0.25
 -6 12 1 0.21 0.15
 -6 12 2 0.42 0.13
 -6 12 3 0.09 0.2
 -6 12 4 0.13 0.19
 -5 0 -3 6.71 0.22
 -5 0 -1 0.31 0.16
 -5 0 1 20.22 0.5
 -5 0 3 2.22 0.15
 -5 0 5 11.4 0.28
 -5 0 7 0.76 0.19
 -5 0 9 2.28 0.17
 -5 0 11 0.07 0.24
 -5 1 -4 6.96 0.16
 -5 1 -3 1.32 0.19
 -5 1 -2 0.2 0.17
 -5 1 -1 8.74 0.16
 -5 1 0 6.37 0.91
 -5 1 1 7.77 0.34
 -5 1 2 4.09 0.12
 -5 1 3 0.3 0.19
 -5 1 4 7.86 0.15
 -5 1 5 6.09 0.17
 -5 1 6 21 0.41
 -5 1 7 19.23 0.34
 -5 1 8 7.66 0.38
 -5 1 9 1.79 0.13
 -5 1 10 0.1 0.18
 -5 1 11 0.34 0.13
 -5 1 12 0.22 0.13
 -5 2 -4 3.11 0.31
 -5 2 -3 6.11 0.43
 -5 2 -2 7.2 0.64
 -5 2 -1 6.3 0.2
 -5 2 0 0.97 0.1
 -5 2 1 0.19 0.12
 -5 2 2 6.37 0.14
 -5 2 3 0.82 0.11
 -5 2 4 4.24 0.13
 -5 2 5 3.34 0.13
 -5 2 6 4.71 0.15
 -5 2 7 0.11 0.17
 -5 2 8 0.97 0.14
 -5 2 9 2.41 0.12
 -5 2 10 1.06 0.12
 -5 2 11 0.61 0.13
 -5 3 -4 1.51 0.14
 -5 3 -3 2.39 0.36
 -5 3 -2 4.17 0.31
 -5 3 -1 0.05 0.18
 -5 3 0 14.22 0.35
 -5 3 1 2.56 0.21
 -5 3 2 0.28 0.11
 -5 3 3 12.76 0.24
 -5 3 4 2.3 0.12
 -5 3 5 15.48 0.3
 -5 3 6 6.92 0.58
 -5 3 7 5.44 0.18
 -5 3 8 5.3 0.2
 -5 3 9 0.67 0.22
 -5 3 10 0.12 0.19
 -5 3 11 0.06 0.19
 -5 4 -4 3.03 0.21
 -5 4 -3 6.6 0.91
 -5 4 -2 17.4 1.4
 -5 4 -1 5.56 0.14
 -5 4 0 2.56 0.12
 -5 4 1 0.56 0.11
 -5 4 2 0.04 0.15
 -5 4 3 1.91 0.12
 -5 4 4 5.27 0.14
 -5 4 5 3.06 0.14
 -5 4 6 1.96 0.14
 -5 4 7 0.3 0.11
 -5 4 8 3.56 0.13
 -5 4 9 1.95 0.28
 -5 4 10 3.49 0.13
 -5 4 11 0.29 0.18
 -5 5 -4 0.01 0.06
 -5 5 -3 0.64 0.13
 -5 5 -2 1.16 0.14
 -5 5 -1 8.91 0.63
 -5 5 0 0.93 0.14
 -5 5 1 1.37 0.17
 -5 5 2 3.87 0.13
 -5 5 3 4.71 0.48
 -5 5 4 11.05 0.26
 -5 5 5 0.05 0.18
 -5 5 6 0.97 0.11
 -5 5 7 3.26 0.12
 -5 5 8 0.31 0.26
 -5 5 9 0.15 0.18
 -5 5 10 0.18 0.15
 -5 5 11 0.15 0.15
 -5 6 -4 1.64 0.12
 -5 6 -3 6.67 0.24
 -5 6 -2 5.94 0.16
 -5 6 -1 6.1 0.16
 -5 6 0 10.16 0.67
 -5 6 1 0.59 0.12
 -5 6 2 10.05 0.48
 -5 6 3 0.22 0.18
 -5 6 4 2.28 0.13
 -5 6 5 4.23 1.4
 -5 6 6 0.46 0.11
 -5 6 7 0.2 0.12
 -5 6 8 1.6 0.12
 -5 6 9 4.06 0.14
 -5 6 10 0.63 0.13
 -5 6 11 0.44 0.13
 -5 7 -4 0.18 0.15
 -5 7 -3 0.28 0.12
 -5 7 -2 1.65 0.22
 -5 7 -1 2.07 0.31
 -5 7 0 2.03 0.14
 -5 7 1 0.58 0.22
 -5 7 2 0.47 0.3
 -5 7 3 3.53 0.17
 -5 7 4 0.3 0.16
 -5 7 5 0.22 0.13
 -5 7 6 0.71 0.12
 -5 7 7 2.17 0.12
 -5 7 8 0.25 0.13
 -5 7 9 0.01 0.08
 -5 7 10 0.1 0.17
 -5 8 -4 0.54 0.11
 -5 8 -3 0.96 0.24
 -5 8 -2 1.82 0.12
 -5 8 -1 4.49 0.47
 -5 8 0 0.22 0.12
 -5 8 1 13.62 1.6
 -5 8 2 1.05 0.11
 -5 8 3 5.34 0.35
 -5 8 4 0.99 0.11
 -5 8 5 0.43 0.12
 -5 8 6 0.41 0.13
 -5 8 7 1.58 0.12
 -5 8 8 1.05 0.12
 -5 8 9 0.27 0.12
 -5 8 10 0.59 0.13
 -5 9 -4 1.85 0.13
 -5 9 -3 0.11 0.17
 -5 9 -2 0.08 0.15
 -5 9 -1 0.07 0.18
 -5 9 0 1.98 0.12
 -5 9 1 0.16 0.16
 -5 9 2 0.22 0.17
 -5 9 3 0.7 0.11
 -5 9 4 0.35 0.11
 -5 9 5 1.37 0.12
 -5 9 6 2.25 0.26
 -5 9 7 0.14 0.16
 -5 9 8 1.64 0.18
 -5 9 9 0.07 0.2
 -5 10 -4 0.15 0.19
 -5 10 -3 0.16 0.19
 -5 10 -2 0.14 0.19
 -5 10 -1 0.17 0.13
 -5 10 0 4.41 0.44
 -5 10 1 1.11 0.12
 -5 10 2 6.12 0.81
 -5 10 3 0.19 0.13
 -5 10 4 0.17 0.14
 -5 10 5 0.27 0.15
 -5 10 6 1.53 0.12
 -5 10 7 0.12 0.18
 -5 10 8 0.05 0.13
 -5 11 -4 0.03 0.14
 -5 11 -3 0.43 0.18
 -5 11 -2 0.12 0.19
 -5 11 -1 0.4 0.19
 -5 11 0 0.23 0.13
 -5 11 1 0.22 0.13
 -5 11 2 1.17 0.13
 -5 11 3 0.05 0.17
 -5 11 4 3.87 0.47
 -5 11 5 0.58 0.12
 -5 11 6 0.96 0.3
 -5 11 7 1.53 0.23
 -5 11 8 0.05 0.2
 -5 12 -4 0.02 0.12
 -5 12 -3 0.23 0.16
 -5 12 -2 0.24 0.19
 -5 12 -1 0.08 0.21
 -5 12 0 0.14 0.2
 -5 12 1 1.79 0.16
 -5 12 2 0.17 0.19
 -5 12 3 0.17 0.16
 -5 12 4 0.13 0.16
 -5 12 5 0.82 0.13
 -5 12 6 0.14 0.16
 -5 13 -2 0.11 0.19
 -5 13 -1 0.46 0.13
 -5 13 0 0.16 0.18
 -5 13 1 0.2 0.17
 -5 13 2 0.14 0.21
 -5 13 3 2.74 0.21
 -5 13 4 0.12 0.18
 -5 13 5 1.67 0.13
 -5 14 1 0.06 0.14
 -5 14 2 0.17 0.23
 -4 0 -2 12.86 0.32
 -4 0 0 190.22 1.73
 -4 0 2 111.96 1.3
 -4 0 4 1.91 0.19
 -4 0 6 5.89 0.19
 -4 0 8 7.7 0.24
 -4 0 10 0.56 0.16
 -4 0 12 3.01 0.2
 -4 1 -3 0.44 0.14
 -4 1 -2 17.66 1.81
 -4 1 -1 0.02 0.09
 -4 1 0 1.18 0.1
 -4 1 1 13.16 0.24
 -4 1 2 41.42 0.58
 -4 1 3 6.88 0.13
 -4 1 4 2.83 0.1
 -4 1 5 4.43 0.12
 -4 1 6 6.05 0.14
 -4 1 7 3.14 0.13
 -4 1 8 0.08 0.21
 -4 1 9 0.18 0.12
 -4 1 10 3.21 0.26
 -4 1 11 0.17 0.15
 -4 1 12 0.15 0.15
 -4 2 -3 0.16 0.12
 -4 2 -2 1.22 0.2
 -4 2 -1 53.28 0.68
 -4 2 0 1.75 0.14
 -4 2 1 125.19 1.43
 -4 2 2 3.59 0.1
 -4 2 3 14.41 0.28
 -4 2 4 25.51 0.59
 -4 2 5 1.04 0.11
 -4 2 6 1.78 0.12
 -4 2 7 8.17 0.16
 -4 2 8 1.97 0.14
 -4 2 9 0.72 0.11
 -4 2 10 0.37 0.12
 -4 2 11 1.93 0.15
 -4 2 12 0.03 0.14
 -4 3 -3 22.35 2.73
 -4 3 -2 3.48 0.52
 -4 3 -1 38.97 0.71
 -4 3 0 2.7 0.3
 -4 3 1 6.2 0.19
 -4 3 2 0.14 0.11
 -4 3 3 38.25 0.59
 -4 3 4 1.73 0.11
 -4 3 5 0.14 0.16
 -4 3 6 0.79 0.12
 -4 3 7 0.11 0.19
 -4 3 8 0.11 0.16
 -4 3 9 7.64 0.15
 -4 3 10 0.02 0.1
 -4 3 11 2.84 0.13
 -4 3 12 0.06 0.19
 -4 4 -3 4.91 0.26
 -4 4 -2 3.75 0.27
 -4 4 -1 0.83 0.1
 -4 4 0 26.1 1.36
 -4 4 1 2.5 0.1
 -4 4 2 13.51 0.27
 -4 4 3 26.04 0.84
 -4 4 4 0.54 0.15
 -4 4 5 20.92 0.37
 -4 4 6 2.16 0.12
 -4 4 7 1.37 0.13
 -4 4 8 1.68 0.11
 -4 4 9 3.29 0.13
 -4 4 10 0.07 0.21
 -4 4 11 0.13 0.16
 -4 4 12 0.46 0.12
 -4 5 -3 0.86 0.12
 -4 5 -2 42.23 0.7
 -4 5 -1 4.13 0.13
 -4 5 0 7.38 0.26
 -4 5 1 1.1 0.1
 -4 5 2 20.1 0.35
 -4 5 3 5.38 0.18
 -4 5 4 12.29 0.21
 -4 5 5 0.65 0.12
 -4 5 6 1.48 0.13
 -4 5 7 2.47 0.14
 -4 5 8 7.25 0.23
 -4 5 9 0.14 0.14
 -4 5 10 6.3 0.47
 -4 5 11 0.12 0.18
 -4 6 -3 1.02 0.13
 -4 6 -2 0.22 0.15
 -4 6 -1 0.62 0.11
 -4 6 0 9.61 0.18
 -4 6 1 0.16 0.12
 -4 6 2 0.14 0.15
 -4 6 3 0.05 0.16
 -4 6 4 17.7 0.58
 -4 6 5 0.99 0.12
 -4 6 6 0.38 0.13
 -4 6 7 0.36 0.16
 -4 6 8 4.41 0.13
 -4 6 9 0.06 0.19
 -4 6 10 0.3 0.13
 -4 6 11 0.03 0.11
 -4 7 -3 12.14 0.38
 -4 7 -2 0.57 0.12
 -4 7 -1 12.3 0.23
 -4 7 0 0.12 0.18
 -4 7 1 0.13 0.16
 -4 7 2 9.91 0.25
 -4 7 3 6.41 0.34
 -4 7 4 0.06 0.19
 -4 7 5 3.57 0.36
 -4 7 6 9.98 0.55
 -4 7 7 4.76 0.13
 -4 7 8 1.8 0.13
 -4 7 9 5.01 0.17
 -4 7 10 0.13 0.2
 -4 7 11 0.65 0.13
 -4 8 -3 0.53 0.2
 -4 8 -2 0.42 0.19
 -4 8 -1 4.66 0.15
 -4 8 0 2.9 0.14
 -4 8 1 9.04 0.18
 -4 8 2 1.11 0.13
 -4 8 3 0.22 0.13
 -4 8 4 1.49 0.16
 -4 8 5 0.48 0.1
 -4 8 6 0.67 0.11
 -4 8 7 1.86 0.11
 -4 8 8 0.37 0.12
 -4 8 9 0.51 0.16
 -4 8 10 0.05 0.16
 -4 9 -3 0.7 0.11
 -4 9 -2 1.15 0.14
 -4 9 -1 0.05 0.16
 -4 9 0 0.22 0.18
 -4 9 1 5.11 0.16
 -4 9 2 0.18 0.18
 -4 9 3 2.26 0.25
 -4 9 4 0.58 0.11
 -4 9 5 5.8 0.15
 -4 9 6 2.46 0.16
 -4 9 7 6.51 0.69
 -4 9 8 2.36 0.13
 -4 9 9 0.27 0.13
 -4 9 10 0.18 0.16
 -4 10 -3 2.09 0.12
 -4 10 -2 0.82 0.11
 -4 10 -1 0.47 0.11
 -4 10 0 6.23 0.14
 -4 10 1 2.04 0.16
 -4 10 2 3.53 0.43
 -4 10 3 1.1 0.17
 -4 10 4 0.65 0.35
 -4 10 5 2.58 0.2
 -4 10 6 0.75 0.12
 -4 10 7 0.03 0.13
 -4 10 8 0.16 0.18
 -4 10 9 0.18 0.16
 -4 11 -3 0.03 0.13
 -4 11 -2 0.24 0.17
 -4 11 -1 0.66 0.12
 -4 11 0 0.65 0.12
 -4 11 1 0.06 0.17
 -4 11 2 2.12 0.22
 -4 11 3 0.45 0.11
 -4 11 4 0.24 0.12
 -4 11 5 0.22 0.17
 -4 11 6 3.57 0.13
 -4 11 7 0.87 0.12
 -4 11 8 0.37 0.12
 -4 12 -3 0.31 0.13
 -4 12 -2 0.48 0.12
 -4 12 -1 1.15 0.13
 -4 12 0 0.42 0.14
 -4 12 1 1.73 0.16
 -4 12 2 0.24 0.12
 -4 12 3 1.94 0.17
 -4 12 4 3.74 0.22
 -4 12 5 1.53 0.15
 -4 12 6 0.25 0.14
 -4 12 7 0.18 0.17
 -4 12 8 0.35 0.13
 -4 13 -3 0.05 0.18
 -4 13 -2 1.36 0.15
 -4 13 -1 0.15 0.17
 -4 13 0 0.17 0.19
 -4 13 1 0.22 0.15
 -4 13 2 0.92 0.12
 -4 13 3 0.15 0.2
 -4 13 4 0.22 0.17
 -4 13 5 0.46 0.14
 -4 13 6 0.41 0.15
 -4 14 -3 0.18 0.18
 -4 14 -2 0.41 0.21
 -4 14 -1 0.04 0.17
 -4 14 0 0.24 0.2
 -4 14 1 0.2 0.14
 -4 14 2 0.25 0.14
 -4 14 3 2.09 0.13
 -4 14 4 1.24 0.13
 -4 14 5 0.91 0.13
 -4 15 0 0.15 0.2
 -4 15 1 0.03 0.11
 -4 15 2 0.06 0.23
 -3 0 -1 52.39 0.8
 -3 0 1 1.9 0.1
 -3 0 3 89.35 1.07
 -3 0 5 1.82 0.13
 -3 0 7 10.32 0.29
 -3 0 9 0.29 0.17
 -3 0 11 3.69 0.2
 -3 1 -2 22.71 2.11
 -3 1 -1 21.48 1.42
 -3 1 0 158.13 7.33
 -3 1 1 264.87 10.24
 -3 1 2 152.03 4.91
 -3 1 3 16.98 0.26
 -3 1 4 1.24 0.54
 -3 1 5 42.43 1
 -3 1 6 16.5 0.32
 -3 1 7 5.2 0.13
 -3 1 8 3.19 0.13
 -3 1 9 0.13 0.13
 -3 1 10 1.61 0.18
 -3 1 11 0.58 0.12
 -3 1 12 1.51 0.09
 -3 2 -2 4.24 0.3
 -3 2 -1 16.16 0.68
 -3 2 0 21.39 0.57
 -3 2 1 4.43 0.16
 -3 2 2 47.59 1.33
 -3 2 3 79.49 2.66
 -3 2 4 47.99 0.9
 -3 2 5 15.44 0.29
 -3 2 6 1.07 0.22
 -3 2 7 0.07 0.19
 -3 2 8 0.48 0.12
 -3 2 9 0.23 0.19
 -3 2 10 2.62 0.12
 -3 2 11 0.19 0.17
 -3 2 12 1.04 0.1
 -3 3 -2 14.19 0.27
 -3 3 -1 33.37 2.13
 -3 3 0 42.01 3.88
 -3 3 1 33.5 0.48
 -3 3 2 64.29 0.88
 -3 3 3 5.09 0.12
 -3 3 4 18.15 0.29
 -3 3 5 0.83 0.16
 -3 3 6 14.3 0.25
 -3 3 7 4.26 0.13
 -3 3 8 2.23 0.21
 -3 3 9 4.67 0.13
 -3 3 10 0.85 0.11
 -3 3 11 1.97 0.1
 -3 3 12 0.57 0.1
 -3 4 -2 12.9 0.22
 -3 4 -1 3.89 2.38
 -3 4 0 8.44 0.46
 -3 4 1 13.87 0.63
 -3 4 2 86.61 0.77
 -3 4 3 62.75 0.82
 -3 4 4 91.6 0.87
 -3 4 5 15.55 0.4
 -3 4 6 1.32 0.19
 -3 4 7 0.88 0.11
 -3 4 8 0.27 0.17
 -3 4 9 1.39 0.11
 -3 4 10 0.63 0.17
 -3 4 11 0.74 0.1
 -3 4 12 0.06 0.16
 -3 5 -2 21.98 0.34
 -3 5 -1 1.25 0.1
 -3 5 0 0.43 0.09
 -3 5 1 24.14 0.78
 -3 5 2 0.95 0.09
 -3 5 3 0.05 0.14
 -3 5 4 2.89 0.11
 -3 5 5 10.24 0.2
 -3 5 6 1.21 0.11
 -3 5 7 0.44 0.12
 -3 5 8 2.21 0.15
 -3 5 9 3.75 0.18
 -3 5 10 1.91 0.12
 -3 5 11 0.11 0.14
 -3 5 12 0.13 0.12
 -3 6 -2 0.07 0.15
 -3 6 -1 16.22 0.56
 -3 6 0 13.18 0.9
 -3 6 1 4.67 0.11
 -3 6 2 30.5 0.54
 -3 6 3 79.78 0.88
 -3 6 4 23.98 0.95
 -3 6 5 11.48 0.22
 -3 6 6 14.05 0.26
 -3 6 7 1.74 0.29
 -3 6 8 4.64 0.38
 -3 6 9 0.2 0.12
 -3 6 10 0.36 0.1
 -3 6 11 0.57 0.1
 -3 6 12 0.18 0.16
 -3 7 -2 2.13 0.14
 -3 7 -1 0.03 0.11
 -3 7 0 0.36 0.11
 -3 7 1 19.32 0.47
 -3 7 2 0.67 0.27
 -3 7 3 0.65 0.12
 -3 7 4 1.61 0.11
 -3 7 5 12.43 1.76
 -3 7 6 0.04 0.16
 -3 7 7 0.71 0.19
 -3 7 8 1.61 0.14
 -3 7 9 1.12 0.12
 -3 7 10 0.25 0.13
 -3 7 11 0.12 0.17
 -3 8 -2 1.11 0.25
 -3 8 -1 8.4 0.31
 -3 8 0 2.05 0.11
 -3 8 1 16.47 0.52
 -3 8 2 10.61 0.21
 -3 8 3 6.68 0.23
 -3 8 4 8.97 0.23
 -3 8 5 11.47 0.72
 -3 8 6 0.85 0.13
 -3 8 7 11.47 0.84
 -3 8 8 0.33 0.15
 -3 8 9 1.22 0.27
 -3 8 10 0.46 0.1
 -3 8 11 0.31 0.1
 -3 9 -2 0.23 0.14
 -3 9 -1 1.48 0.12
 -3 9 0 13.3 0.25
 -3 9 1 0.17 0.14
 -3 9 2 12.98 0.24
 -3 9 3 0.07 0.22
 -3 9 4 3.13 0.14
 -3 9 5 0.14 0.15
 -3 9 6 5.54 0.61
 -3 9 7 0.2 0.12
 -3 9 8 0.07 0.2
 -3 9 9 0.15 0.2
 -3 9 10 0.18 0.12
 -3 10 -2 0.75 0.11
 -3 10 -1 0.39 0.34
 -3 10 0 9.71 0.46
 -3 10 1 0.05 0.18
 -3 10 2 1.04 0.16
 -3 10 3 0.62 0.39
 -3 10 4 0.33 0.11
 -3 10 5 0.59 0.11
 -3 10 6 6.19 0.29
 -3 10 7 0.76 0.13
 -3 10 8 2.87 0.38
 -3 10 9 0.16 0.12
 -3 10 10 0.14 0.13
 -3 11 -2 7.5 0.22
 -3 11 -1 1.46 0.12
 -3 11 0 1.68 0.1
 -3 11 1 7.19 0.22
 -3 11 2 0.07 0.19
 -3 11 3 0.07 0.19
 -3 11 4 0.65 0.11
 -3 11 5 3.44 0.19
 -3 11 6 0.3 0.12
 -3 11 7 0.36 0.23
 -3 11 8 0.68 0.2
 -3 11 9 0.01 0.05
 -3 12 -2 0.52 0.11
 -3 12 -1 2.66 0.25
 -3 12 0 0.16 0.16
 -3 12 1 0.5 0.12
 -3 12 2 0.21 0.12
 -3 12 3 1.22 0.12
 -3 12 4 0.92 0.12
 -3 12 5 0.33 0.13
 -3 12 6 0.33 0.13
 -3 12 7 1.81 0.12
 -3 12 8 0.04 0.15
 -3 13 -2 0.11 0.18
 -3 13 -1 4.06 0.14
 -3 13 0 0.33 0.12
 -3 13 1 0.14 0.17
 -3 13 2 0.25 0.13
 -3 13 3 0.29 0.2
 -3 13 4 0.27 0.13
 -3 13 5 0.72 0.12
 -3 13 6 0.17 0.13
 -3 13 7 0.3 0.17
 -3 14 -2 0.31 0.17
 -3 14 -1 0.68 0.18
 -3 14 0 0.35 0.13
 -3 14 1 0.71 0.55
 -3 14 2 0.66 0.12
 -3 14 3 0.69 0.14
 -3 14 4 0.73 0.13
 -3 14 5 0.32 0.12
 -3 14 6 0.16 0.18
 -3 15 -2 2.22 0.16
 -3 15 -1 0.21 0.18
 -3 15 0 0.24 0.13
 -3 15 1 0.21 0.14
 -3 15 2 0.11 0.19
 -3 15 3 0.2 0.17
 -3 15 4 0.45 0.17
 -2 0 0 66.77 0.71
 -2 0 2 202.43 1.33
 -2 0 4 78.66 0.95
 -2 0 6 194.44 1.79
 -2 0 8 24.28 0.41
 -2 0 10 0.1 0.16
 -2 0 12 0.19 0.17
 -2 1 -1 54.29 2.81
 -2 1 0 95.89 2.65
 -2 1 1 129.84 5.23
 -2 1 2 8.85 0.16
 -2 1 3 10.23 0.29
 -2 1 4 154.95 2.02
 -2 1 5 10.13 0.19
 -2 1 6 3.03 0.16
 -2 1 7 0.53 0.1
 -2 1 8 5.11 0.14
 -2 1 9 0.22 0.11
 -2 1 10 0.11 0.15
 -2 1 11 1.3 0.09
 -2 1 12 0.66 0.12
 -2 1 13 0.22 0.15
 -2 2 -1 9.93 0.36
 -2 2 0 14.17 0.27
 -2 2 1 101.95 1.28
 -2 2 2 102.25 1.36
 -2 2 3 0.58 0.16
 -2 2 4 23.36 0.41
 -2 2 5 138.99 1.45
 -2 2 6 0.09 0.16
 -2 2 7 58.68 0.78
 -2 2 8 1.31 0.14
 -2 2 9 1.52 0.09
 -2 2 10 1.8 0.08
 -2 2 11 0.1 0.16
 -2 2 12 0.14 0.17
 -2 3 -1 4.29 0.38
 -2 3 0 5.28 0.33
 -2 3 1 0.04 0.11
 -2 3 2 1.7 0.07
 -2 3 3 229.86 6.72
 -2 3 4 0.16 0.12
 -2 3 5 80.44 0.78
 -2 3 6 0.26 0.18
 -2 3 7 4.21 0.17
 -2 3 8 1.73 0.15
 -2 3 9 5.22 0.12
 -2 3 10 1.34 0.09
 -2 3 11 0.07 0.14
 -2 3 12 0.39 0.13
 -2 4 -1 97.66 4.26
 -2 4 0 0.12 0.09
 -2 4 1 40.06 0.95
 -2 4 2 4.85 0.13
 -2 4 3 114.41 2.12
 -2 4 4 16.03 0.54
 -2 4 5 0.06 0.16
 -2 4 6 24.21 0.71
 -2 4 7 0.17 0.13
 -2 4 8 2.51 0.1
 -2 4 9 4.26 0.09
 -2 4 10 0.07 0.14
 -2 4 11 0.99 0.1
 -2 4 12 0.13 0.16
 -2 5 -1 11.04 0.63
 -2 5 0 4.83 0.2
 -2 5 1 20.48 0.43
 -2 5 2 75.4 0.7
 -2 5 3 1.89 0.23
 -2 5 4 123.62 3.47
 -2 5 5 2.72 0.21
 -2 5 6 2.35 0.31
 -2 5 7 2.57 0.19
 -2 5 8 8.78 0.27
 -2 5 9 2.02 0.07
 -2 5 10 1.33 0.1
 -2 5 11 0.08 0.17
 -2 5 12 0.1 0.15
 -2 6 -1 0.08 0.13
 -2 6 0 4.93 0.11
 -2 6 1 0.39 0.09
 -2 6 2 58.33 2.44
 -2 6 3 1.18 0.1
 -2 6 4 3.12 0.21
 -2 6 5 0.13 0.15
 -2 6 6 7.45 0.15
 -2 6 7 0.27 0.11
 -2 6 8 0.19 0.11
 -2 6 9 0.1 0.14
 -2 6 10 1.83 0.15
 -2 6 11 0.26 0.12
 -2 6 12 0.06 0.13
 -2 7 -1 25.52 0.6
 -2 7 0 68.41 0.74
 -2 7 1 36.18 0.98
 -2 7 2 11.85 0.36
 -2 7 3 57.48 2.07
 -2 7 4 4.97 0.13
 -2 7 5 11.62 0.35
 -2 7 6 0.04 0.15
 -2 7 7 1.09 0.13
 -2 7 8 2.92 0.21
 -2 7 9 1.74 0.25
 -2 7 10 0.05 0.16
 -2 7 11 0.26 0.1
 -2 8 -1 6.23 0.13
 -2 8 0 0.03 0.11
 -2 8 1 4.68 0.12
 -2 8 2 6.45 0.13
 -2 8 3 2.84 0.12
 -2 8 4 0.32 0.14
 -2 8 5 9.41 0.23
 -2 8 6 5.96 0.13
 -2 8 7 4.04 0.1
 -2 8 8 0.63 0.09
 -2 8 9 0.19 0.15
 -2 8 10 0.47 0.1
 -2 8 11 0.06 0.16
 -2 9 -1 26.57 0.56
 -2 9 0 16.55 0.42
 -2 9 1 43.79 1.59
 -2 9 2 14.52 0.53
 -2 9 3 0.26 0.12
 -2 9 4 2.34 0.17
 -2 9 5 0.72 0.13
 -2 9 6 0.12 0.16
 -2 9 7 1.78 0.13
 -2 9 8 0.1 0.16
 -2 9 9 0.28 0.2
 -2 9 10 0.09 0.17
 -2 10 -1 3.41 0.13
 -2 10 0 0.57 0.21
 -2 10 1 3.21 0.13
 -2 10 2 0.06 0.2
 -2 10 3 3.49 0.14
 -2 10 4 5.52 0.22
 -2 10 5 2.43 0.2
 -2 10 6 6.88 0.44
 -2 10 7 1.8 0.18
 -2 10 8 0.87 0.09
 -2 10 9 0.38 0.23
 -2 10 10 0.13 0.17
 -2 11 -1 2.4 0.14
 -2 11 0 15.08 1.22
 -2 11 1 4.08 0.35
 -2 11 2 3.59 0.15
 -2 11 3 0.2 0.11
 -2 11 4 0.3 0.15
 -2 11 5 0.82 0.18
 -2 11 6 0.11 0.16
 -2 11 7 0.32 0.12
 -2 11 8 0.18 0.13
 -2 11 9 0.47 0.2
 -2 12 -1 2.25 0.12
 -2 12 0 0.39 0.12
 -2 12 1 0.05 0.16
 -2 12 2 4.32 0.13
 -2 12 3 3.12 0.17
 -2 12 4 0.42 0.18
 -2 12 5 3.42 0.25
 -2 12 6 0.64 0.1
 -2 12 7 0.94 0.12
 -2 12 8 0.28 0.17
 -2 12 9 0.29 0.12
 -2 13 -1 0.27 0.12
 -2 13 0 1.33 0.12
 -2 13 1 0.41 0.11
 -2 13 2 0.03 0.11
 -2 13 3 0.06 0.19
 -2 13 4 2.25 0.13
 -2 13 5 0.1 0.16
 -2 13 6 0.11 0.17
 -2 13 7 0.22 0.12
 -2 13 8 0.99 0.16
 -2 14 -1 1.77 0.13
 -2 14 0 0.19 0.14
 -2 14 1 0.56 0.12
 -2 14 2 1.66 0.11
 -2 14 3 1.26 0.12
 -2 14 4 1.12 0.1
 -2 14 5 0.06 0.16
 -2 14 6 0.14 0.14
 -2 15 -1 0.02 0.08
 -2 15 0 0.45 0.13
 -2 15 1 0.35 0.12
 -2 15 2 0.45 0.13
 -2 15 3 0.61 0.12
 -2 15 4 0.05 0.15
 -2 15 5 0.31 0.11
 -2 16 -1 0.48 0.11
 -2 16 0 0.14 0.17
 -2 16 1 0.3 0.14
 -2 16 2 0.19 0.14
 -1 0 1 671.72 4.49
 -1 0 3 7.21 0.2
 -1 0 5 113.21 0.84
 -1 0 7 2.13 0.15
 -1 0 9 2.92 0.19
 -1 0 11 0.16 0.19
 -1 0 13 0.32 0.17
 -1 1 0 687.51 28.78
 -1 1 1 326.26 6.17
 -1 1 2 314.4 6.64
 -1 1 3 15.98 0.27
 -1 1 4 67.63 0.57
 -1 1 5 23.72 0.3
 -1 1 6 60.69 0.91
 -1 1 7 42.1 3.39
 -1 1 8 7.84 0.15
 -1 1 9 0.58 0.13
 -1 1 10 0.66 0.11
 -1 1 11 1.5 0.12
 -1 1 12 0.73 0.12
 -1 1 13 0.05 0.16
 -1 2 0 78.74 5.67
 -1 2 1 3.28 0.09
 -1 2 2 49.57 1.45
 -1 2 3 2.84 0.2
 -1 2 4 85.46 4.36
 -1 2 5 9.53 0.15
 -1 2 6 19.02 0.43
 -1 2 7 4.12 0.42
 -1 2 8 2.61 0.21
 -1 2 9 8.3 0.62
 -1 2 10 1.14 0.18
 -1 2 11 0.75 0.11
 -1 2 12 0.15 0.17
 -1 3 0 312.05 5.76
 -1 3 1 231.13 4.38
 -1 3 2 74.01 2.32
 -1 3 3 189.61 3.53
 -1 3 4 36.51 0.39
 -1 3 5 49.83 0.82
 -1 3 6 27.41 1.09
 -1 3 7 6.05 0.56
 -1 3 8 8.71 0.37
 -1 3 9 0.19 0.11
 -1 3 10 0.45 0.11
 -1 3 11 0.17 0.14
 -1 3 12 0.2 0.13
 -1 4 0 0.4 0.06
 -1 4 1 4.83 0.09
 -1 4 2 45 1.38
 -1 4 3 6.73 0.11
 -1 4 4 14.93 0.34
 -1 4 5 5 0.09
 -1 4 6 0.1 0.15
 -1 4 7 2.95 0.49
 -1 4 8 19.12 2.56
 -1 4 9 4.51 0.33
 -1 4 10 6.37 0.18
 -1 4 11 0.26 0.13
 -1 4 12 0.13 0.15
 -1 5 0 2.81 0.12
 -1 5 1 0.09 0.09
 -1 5 2 105.42 3.36
 -1 5 3 73.01 1.46
 -1 5 4 53.85 0.51
 -1 5 5 0.15 0.1
 -1 5 6 0.29 0.09
 -1 5 7 11.93 0.74
 -1 5 8 2.35 1.74
 -1 5 9 0.25 0.14
 -1 5 10 0.1 0.16
 -1 5 11 0.23 0.15
 -1 5 12 0.09 0.18
 -1 6 0 43.45 2.3
 -1 6 1 37.26 1.26
 -1 6 2 14.81 0.39
 -1 6 3 0.96 0.66
 -1 6 4 0.49 0.09
 -1 6 5 11.85 0.23
 -1 6 6 10.32 0.65
 -1 6 7 4.12 0.14
 -1 6 8 6.8 0.22
 -1 6 9 10.07 0.28
 -1 6 10 1.5 0.13
 -1 6 11 0.46 0.13
 -1 6 12 0.32 0.14
 -1 7 0 4.44 0.24
 -1 7 1 0.12 0.12
 -1 7 2 9.07 0.27
 -1 7 3 26.47 0.59
 -1 7 4 1.76 0.1
 -1 7 5 0.12 0.14
 -1 7 6 2.91 0.1
 -1 7 7 6.32 0.26
 -1 7 8 0.96 0.09
 -1 7 9 0 0.04
 -1 7 10 0.07 0.19
 -1 7 11 0.88 0.19
 -1 8 0 3.39 0.34
 -1 8 1 62.01 3.29
 -1 8 2 7.12 0.26
 -1 8 3 2.15 0.09
 -1 8 4 5.53 0.13
 -1 8 5 15.44 0.53
 -1 8 6 0.99 0.1
 -1 8 7 7.95 0.23
 -1 8 8 2.66 0.27
 -1 8 9 1.15 0.22
 -1 8 10 0.48 0.12
 -1 8 11 0.66 0.12
 -1 9 0 24.82 1.11
 -1 9 1 0.92 0.15
 -1 9 2 0.19 0.11
 -1 9 3 3.35 0.1
 -1 9 4 0.17 0.17
 -1 9 5 3.16 0.14
 -1 9 6 7.4 0.3
 -1 9 7 0.47 0.09
 -1 9 8 1.41 0.1
 -1 9 9 0.01 0.08
 -1 9 10 1.01 0.12
 -1 9 11 0.19 0.19
 -1 10 0 27.19 1.71
 -1 10 1 3.51 0.1
 -1 10 2 14.28 0.55
 -1 10 3 0.24 0.15
 -1 10 4 4.67 0.15
 -1 10 5 1.86 0.23
 -1 10 6 7.4 0.4
 -1 10 7 0.2 0.14
 -1 10 8 0.23 0.11
 -1 10 9 0.04 0.12
 -1 10 10 0.18 0.13
 -1 11 0 0.22 0.13
 -1 11 1 2.68 0.11
 -1 11 2 12.81 0.4
 -1 11 3 0.05 0.18
 -1 11 4 12.17 0.75
 -1 11 5 1.9 0.11
 -1 11 6 0.87 0.09
 -1 11 7 2.05 0.1
 -1 11 8 0.02 0.07
 -1 11 9 0.22 0.12
 -1 12 0 0.35 0.09
 -1 12 1 7.18 0.12
 -1 12 2 0.02 0.09
 -1 12 3 0.08 0.19
 -1 12 4 0.08 0.15
 -1 12 5 2.96 0.12
 -1 12 6 0.11 0.17
 -1 12 7 0.1 0.16
 -1 12 8 0.19 0.12
 -1 12 9 0.41 0.1
 -1 13 0 0.43 0.09
 -1 13 1 3.44 0.22
 -1 13 2 0.06 0.13
 -1 13 3 13.9 0.7
 -1 13 4 0.11 0.18
 -1 13 5 2.95 0.13
 -1 13 6 0.41 0.13
 -1 13 7 0.11 0.16
 -1 13 8 0.09 0.15
 -1 14 0 0.2 0.13
 -1 14 1 0.63 0.09
 -1 14 2 0.36 0.1
 -1 14 3 0.32 0.13
 -1 14 4 0.35 0.13
 -1 14 5 0.2 0.16
 -1 14 6 0.15 0.17
 -1 14 7 0.1 0.16
 -1 15 0 0.13 0.16
 -1 15 1 0.11 0.17
 -1 15 2 4.13 0.11
 -1 15 3 0.04 0.16
 -1 15 4 3.03 0.14
 -1 15 5 0.06 0.18
 -1 16 0 0.68 0.1
 -1 16 1 0.07 0.16
 -1 16 2 0.6 0.11
 -1 16 3 0.18 0.13
 0 0 2 936.92 6.07
 0 0 4 16.15 0.45
 0 0 6 1.94 0.14
 0 0 8 1.52 0.16
 0 0 10 3.68 0.17
 0 0 12 3.32 0.19
 0 1 1 48.24 1.52
 0 1 2 424.53 10.62
 0 1 3 6.03 0.3
 0 1 4 1.47 0.07
 0 1 5 32.08 0.47
 0 1 6 19.65 0.31
 0 1 7 6.42 0.39
 0 1 8 0.89 0.12
 0 1 9 0.8 0.27
 0 1 10 3.73 0.12
 0 1 11 0.6 0.22
 0 1 12 0.17 0.17
 0 2 0 2.12 0.06
 0 2 1 1952.95 88.65
 0 2 2 40.35 1.83
 0 2 3 0.06 0.08
 0 2 4 56.58 1.61
 0 2 5 2.79 0.1
 0 2 6 0.05 0.15
 0 2 7 4.29 0.4
 0 2 8 7.13 0.92
 0 2 9 0.2 0.11
 0 2 10 0.93 0.12
 0 2 11 3.42 0.23
 0 2 12 0.05 0.16
 0 3 1 308.91 5.12
 0 3 2 11.23 0.47
 0 3 3 250.44 12.56
 0 3 4 6.17 0.45
 0 3 5 0.11 0.1
 0 3 6 2.15 0.19
 0 3 7 0.53 0.11
 0 3 8 0.28 0.18
 0 3 9 9.52 0.63
 0 3 10 0.16 0.13
 0 3 11 1.39 0.12
 0 3 12 0.19 0.16
 0 4 0 323.6 1.75
 0 4 1 17.75 0.49
 0 4 2 25.6 1.14
 0 4 3 75.1 3.68
 0 4 4 0.57 0.18
 0 4 5 14.75 0.91
 0 4 6 2.17 0.15
 0 4 7 12.42 1.34
 0 4 8 1 0.48
 0 4 9 6.87 0.37
 0 4 10 0.26 0.12
 0 4 11 0.07 0.14
 0 4 12 0.31 0.14
 0 5 1 32.48 0.9
 0 5 2 231.98 4.84
 0 5 3 14.76 0.91
 0 5 4 49.46 1.72
 0 5 5 4.83 0.37
 0 5 6 4.53 0.16
 0 5 7 2.64 0.15
 0 5 8 10.75 1.06
 0 5 9 0.03 0.13
 0 5 10 4.23 0.15
 0 5 11 0.12 0.17
 0 5 12 0.11 0.16
 0 6 0 43.66 0.81
 0 6 1 0.16 0.07
 0 6 2 3.3 0.11
 0 6 3 1.19 0.09
 0 6 4 37.31 1.27
 0 6 5 3.95 0.24
 0 6 6 0.88 0.11
 0 6 7 1.28 0.13
 0 6 8 9.45 0.36
 0 6 9 0.02 0.08
 0 6 10 0.35 0.19
 0 6 11 0.27 0.18
 0 6 12 0.07 0.2
 0 7 1 23.27 0.46
 0 7 2 26.15 0.67
 0 7 3 43.47 1.64
 0 7 4 4.81 0.45
 0 7 5 13.29 0.59
 0 7 6 23.01 1.31
 0 7 7 8.56 0.5
 0 7 8 1.23 0.14
 0 7 9 4.03 0.16
 0 7 10 0.18 0.15
 0 7 11 0.27 0.12
 0 8 0 25.85 0.52
 0 8 1 22.34 0.33
 0 8 2 1.17 0.08
 0 8 3 2.32 0.09
 0 8 4 7.64 0.44
 0 8 5 0.84 0.12
 0 8 6 1.61 0.13
 0 8 7 2.71 0.24
 0 8 8 0.03 0.13
 0 8 9 0.21 0.13
 0 8 10 0.4 0.28
 0 8 11 0.5 0.12
 0 9 1 5.5 0.12
 0 9 2 1.53 0.09
 0 9 3 0.12 0.15
 0 9 4 4.25 0.17
 0 9 5 22.43 1.35
 0 9 6 5.14 0.13
 0 9 7 8.21 0.16
 0 9 8 1.92 0.12
 0 9 9 0.03 0.11
 0 9 10 0.07 0.2
 0 10 0 26.08 0.6
 0 10 1 6.48 0.31
 0 10 2 8.01 0.22
 0 10 3 5.76 0.29
 0 10 4 0.28 0.11
 0 10 5 4.67 0.13
 0 10 6 0.22 0.15
 0 10 7 0.04 0.15
 0 10 8 0.08 0.18
 0 10 9 0.04 0.16
 0 10 10 0.67 0.13
 0 11 1 1.3 0.13
 0 11 2 0.87 0.11
 0 11 3 1.04 0.11
 0 11 4 3.98 0.1
 0 11 5 0.88 0.11
 0 11 6 6.64 0.33
 0 11 7 0.94 0.11
 0 11 8 0.22 0.15
 0 11 9 0.19 0.13
 0 12 0 1.38 0.17
 0 12 1 5.96 0.23
 0 12 2 1 0.08
 0 12 3 3.35 0.1
 0 12 4 6.01 0.11
 0 12 5 0.62 0.09
 0 12 6 0.14 0.19
 0 12 7 0.25 0.13
 0 12 8 0.67 0.13
 0 13 1 0.04 0.14
 0 13 2 3.95 0.1
 0 13 3 0.1 0.15
 0 13 4 0.22 0.11
 0 13 5 0.68 0.1
 0 13 6 0.34 0.13
 0 13 7 0.05 0.17
 0 13 8 0.04 0.15
 0 14 0 0.17 0.19
 0 14 1 0.62 0.24
 0 14 2 1.16 0.09
 0 14 3 2.93 0.1
 0 14 4 1.42 0.18
 0 14 5 0.46 0.11
 0 14 6 0.03 0.13
 0 14 7 0.31 0.12
 0 15 1 0.87 0.18
 0 15 2 0.2 0.13
 0 15 3 1.03 0.1
 0 15 4 0.16 0.13
 0 15 5 0.1 0.14
 0 16 0 0.4 0.19
 0 16 1 0.16 0.17
 0 16 2 0.76 0.13
 0 16 3 0.4 0.18
 1 0 1 0.19 0.06
 1 0 3 193.66 1.36
 1 0 5 0.72 0.12
 1 0 7 5.71 0.19
 1 0 9 2.18 0.16
 1 0 11 3.25 0.18
 1 1 1 748.21 28.34
 1 1 2 57.56 3.84
 1 1 3 0.03 0.09
 1 1 4 38.47 0.71
 1 1 5 62.12 0.93
 1 1 6 31.25 1
 1 1 7 3.88 0.13
 1 1 8 4.31 0.37
 1 1 9 0.08 0.2
 1 1 10 1.17 0.15
 1 1 11 0.47 0.12
 1 1 12 0.55 0.13
 1 2 1 182.55 6.23
 1 2 2 234.56 8.4
 1 2 3 235.75 10.14
 1 2 4 51.33 1.67
 1 2 5 12.5 0.21
 1 2 6 2.87 0.34
 1 2 7 1.1 0.14
 1 2 8 0.01 0.09
 1 2 9 0.07 0.19
 1 2 10 2.72 0.13
 1 2 11 0.26 0.21
 1 2 12 0.43 0.12
 1 3 1 2.88 0.14
 1 3 2 140.01 0.8
 1 3 3 5.97 0.15
 1 3 4 27.59 0.96
 1 3 5 9.34 0.35
 1 3 6 6.74 0.58
 1 3 7 9.86 0.68
 1 3 8 2.97 0.48
 1 3 9 4.18 0.29
 1 3 10 0.35 0.17
 1 3 11 0.76 0.12
 1 3 12 0.45 0.12
 1 4 1 54.03 1.13
 1 4 2 283.31 3.36
 1 4 3 110.37 2.72
 1 4 4 103.08 2.62
 1 4 5 8.61 0.62
 1 4 6 0.13 0.16
 1 4 7 0.04 0.12
 1 4 8 1.84 0.23
 1 4 9 0.65 0.11
 1 4 10 0.1 0.18
 1 4 11 0.41 0.27
 1 4 12 0.12 0.17
 1 5 1 111.72 1.37
 1 5 2 17.8 0.66
 1 5 3 1.07 0.09
 1 5 4 2.71 0.13
 1 5 5 5.2 0.34
 1 5 6 0.1 0.15
 1 5 7 2.66 0.45
 1 5 8 3.5 0.12
 1 5 9 3.13 0.1
 1 5 10 1.1 0.12
 1 5 11 0.08 0.19
 1 6 1 36.85 1.78
 1 6 2 52.95 2.12
 1 6 3 123.29 4.44
 1 6 4 24.34 2.01
 1 6 5 4.89 0.29
 1 6 6 7.46 0.58
 1 6 7 3.16 0.33
 1 6 8 0.96 0.11
 1 6 9 0.22 0.13
 1 6 10 0.27 0.17
 1 6 11 0.02 0.09
 1 7 1 43.35 2.32
 1 7 2 5.93 0.44
 1 7 3 0.39 0.1
 1 7 4 0.21 0.11
 1 7 5 15.09 0.43
 1 7 6 0.56 0.15
 1 7 7 0.25 0.15
 1 7 8 1.58 0.12
 1 7 9 0.68 0.16
 1 7 10 0.09 0.23
 1 7 11 0.1 0.17
 1 8 1 40.59 2.15
 1 8 2 19.69 1.61
 1 8 3 10.66 0.8
 1 8 4 7.21 0.36
 1 8 5 10.7 0.51
 1 8 6 1.2 0.13
 1 8 7 4.79 0.33
 1 8 8 0.18 0.13
 1 8 9 0.03 0.11
 1 8 10 0.39 0.12
 1 9 1 0.15 0.16
 1 9 2 6.88 0.44
 1 9 3 0.07 0.2
 1 9 4 12.26 0.43
 1 9 5 0.15 0.17
 1 9 6 6.78 0.14
 1 9 7 0.11 0.16
 1 9 8 0.1 0.17
 1 9 9 0.14 0.17
 1 9 10 0.01 0.05
 1 10 1 0.72 0.11
 1 10 2 1.44 0.19
 1 10 3 0.21 0.14
 1 10 4 0.83 0.13
 1 10 5 0.44 0.11
 1 10 6 4.81 0.2
 1 10 7 0.35 0.23
 1 10 8 0.7 0.19
 1 10 9 0.26 0.12
 1 11 1 7.81 0.53
 1 11 2 0.45 0.13
 1 11 3 0.58 0.1
 1 11 4 0.18 0.12
 1 11 5 5.45 0.14
 1 11 6 0.17 0.13
 1 11 7 0.37 0.12
 1 11 8 1.23 0.15
 1 11 9 0.1 0.17
 1 12 1 0.38 0.11
 1 12 2 1.53 0.11
 1 12 3 1.31 0.15
 1 12 4 1.04 0.1
 1 12 5 0.3 0.2
 1 12 6 0.08 0.17
 1 12 7 1.25 0.12
 1 12 8 0.15 0.18
 1 13 1 0.43 0.11
 1 13 2 0.14 0.17
 1 13 3 0.05 0.17
 1 13 4 0.52 0.12
 1 13 5 0.08 0.22
 1 13 6 0.2 0.16
 1 13 7 0.82 0.15
 1 14 1 0.09 0.18
 1 14 2 1.45 0.11
 1 14 3 0.96 0.12
 1 14 4 0.6 0.17
 1 14 5 0.11 0.18
 1 14 6 0.36 0.25
 1 15 1 0.22 0.11
 1 15 2 0.23 0.13
 1 15 3 0.06 0.18
 1 15 4 0.12 0.17
 1 15 5 0.09 0.18
 1 16 1 0.14 0.19
 1 16 2 0.08 0.21
 1 16 3 0.5 0.21
 2 0 2 12.13 0.28
 2 0 4 94.16 1.14
 2 0 6 92.51 1.37
 2 0 8 4.81 0.22
 2 0 10 0 0.11
 2 0 12 0.18 0.18
 2 1 2 32.28 2.56
 2 1 3 12.44 0.54
 2 1 4 70.99 2.71
 2 1 5 8.78 0.14
 2 1 6 0.68 0.1
 2 1 7 0.37 0.12
 2 1 8 1.52 0.13
 2 1 9 0.76 0.23
 2 1 10 0.15 0.14
 2 1 11 0.49 0.13
 2 1 12 0.24 0.19
 2 2 2 95.96 4.32
 2 2 3 2.16 0.08
 2 2 4 7.84 0.51
 2 2 5 83.76 4.51
 2 2 6 0.16 0.16
 2 2 7 19.88 1.65
 2 2 8 0.54 0.14
 2 2 9 1.55 1.03
 2 2 10 0.27 0.17
 2 2 11 0.14 0.2
 2 3 2 1.64 0.08
 2 3 3 126.72 7.14
 2 3 4 0.11 0.15
 2 3 5 15.26 0.88
 2 3 6 2.01 0.11
 2 3 7 6.65 0.23
 2 3 8 1.94 0.11
 2 3 9 2.12 0.57
 2 3 10 0.6 0.12
 2 3 11 0.1 0.19
 2 4 2 4.72 0.17
 2 4 3 48.33 0.62
 2 4 4 8.88 0.33
 2 4 5 0.13 0.15
 2 4 6 11.14 0.86
 2 4 7 0.14 0.17
 2 4 8 0.6 0.11
 2 4 9 0.86 0.14
 2 4 10 0.02 0.11
 2 4 11 0.12 0.18
 2 5 2 53.25 2.52
 2 5 3 5.44 0.11
 2 5 4 36.35 1.92
 2 5 5 4.76 3.45
 2 5 6 1.2 0.12
 2 5 7 2.26 0.45
 2 5 8 7.02 0.25
 2 5 9 0.56 0.09
 2 5 10 0.7 0.1
 2 5 11 0.11 0.16
 2 6 2 53.45 0.66
 2 6 3 0.09 0.15
 2 6 4 0.63 0.1
 2 6 5 0.03 0.13
 2 6 6 3.21 0.27
 2 6 7 0.18 0.15
 2 6 8 0.18 0.15
 2 6 9 0.2 0.14
 2 6 10 0.32 0.13
 2 6 11 0.19 0.17
 2 7 2 1.95 0.19
 2 7 3 22.27 0.78
 2 7 4 7.17 0.15
 2 7 5 0.79 0.2
 2 7 6 0.13 0.19
 2 7 7 2.84 0.2
 2 7 8 0.46 0.11
 2 7 9 1.55 0.16
 2 7 10 0.22 0.14
 2 8 2 1.18 0.23
 2 8 3 0.56 0.11
 2 8 4 1.3 0.12
 2 8 5 6.19 0.31
 2 8 6 2.83 0.12
 2 8 7 1.53 0.11
 2 8 8 0.13 0.19
 2 8 9 0.19 0.18
 2 8 10 0.41 0.13
 2 9 2 5.97 0.14
 2 9 3 1.19 0.12
 2 9 4 0.52 0.12
 2 9 5 2.03 0.11
 2 9 6 0.11 0.16
 2 9 7 0.13 0.18
 2 9 8 0.24 0.16
 2 9 9 0.09 0.19
 2 10 2 0.86 0.12
 2 10 3 1.01 0.13
 2 10 4 4.93 0.13
 2 10 5 1.9 0.12
 2 10 6 3.58 0.13
 2 10 7 0.3 0.13
 2 10 8 0.29 0.14
 2 10 9 0.44 0.13
 2 11 2 0.75 0.1
 2 11 3 0.17 0.13
 2 11 4 1.46 0.16
 2 11 5 0.1 0.17
 2 11 6 0.18 0.18
 2 11 7 0.38 0.13
 2 11 8 0.02 0.11
 2 12 2 5.14 0.13
 2 12 3 4 0.13
 2 12 4 0.24 0.12
 2 12 5 2.06 0.2
 2 12 6 0.21 0.18
 2 12 7 0.36 0.13
 2 12 8 0.28 0.17
 2 13 2 0.1 0.16
 2 13 3 0.15 0.16
 2 13 4 0.75 0.12
 2 13 5 0.04 0.16
 2 13 6 0.26 0.13
 2 13 7 0.04 0.14
 2 14 2 2.2 0.13
 2 14 3 1.83 0.13
 2 14 4 0.71 0.13
 2 14 5 0.04 0.15
 2 15 2 0.16 0.15
 2 15 3 0.45 0.11
 2 15 4 0.05 0.17
 3 0 3 13.17 0.37
 3 0 5 32.79 0.87
 3 0 7 0.29 0.2
 3 0 9 0.42 0.18
 3 0 11 0.05 0.2
 3 1 3 0.44 0.09
 3 1 4 13.77 0.65
 3 1 5 9.72 0.29
 3 1 6 7.53 0.15
 3 1 7 5.94 0.16
 3 1 8 0.1 0.19
 3 1 9 0.09 0.16
 3 1 10 0.69 0.12
 3 1 11 0.44 0.23
 3 2 3 1.3 0.26
 3 2 4 20.84 0.56
 3 2 5 0.05 0.17
 3 2 6 3.6 0.19
 3 2 7 2.9 0.14
 3 2 8 0.84 0.11
 3 2 9 1.61 0.14
 3 2 10 0.3 0.23
 3 2 11 0.01 0.05
 3 3 3 28.43 1.51
 3 3 4 0.81 0.17
 3 3 5 6.34 0.26
 3 3 6 10.01 0.64
 3 3 7 0.08 0.14
 3 3 8 1.76 0.21
 3 3 9 0.31 0.12
 3 3 10 0.04 0.16
 3 3 11 0.19 0.15
 3 4 3 0.16 0.14
 3 4 4 0.17 0.12
 3 4 5 0.26 0.11
 3 4 6 1.5 0.18
 3 4 7 1.43 0.12
 3 4 8 5.28 0.17
 3 4 9 0.93 0.12
 3 4 10 0.66 0.13
 3 4 11 0.02 0.09
 3 5 3 11.87 0.31
 3 5 4 8.22 0.73
 3 5 5 1.2 0.12
 3 5 6 0.15 0.18
 3 5 7 4.33 0.2
 3 5 8 0.2 0.17
 3 5 9 0.33 0.13
 3 5 10 0.05 0.17
 3 6 3 0.18 0.12
 3 6 4 4.22 0.3
 3 6 5 0.72 0.13
 3 6 6 4.95 0.26
 3 6 7 2.12 0.14
 3 6 8 1.74 0.24
 3 6 9 1.82 0.13
 3 6 10 0.21 0.15
 3 7 3 6.42 0.3
 3 7 4 0.14 0.19
 3 7 5 0.39 0.12
 3 7 6 1.7 0.11
 3 7 7 0.96 0.15
 3 7 8 0.71 0.21
 3 7 9 0.13 0.2
 3 7 10 0.21 0.17
 3 8 3 2.53 0.13
 3 8 4 2.11 0.13
 3 8 5 9.62 0.23
 3 8 6 0.22 0.11
 3 8 7 2.64 0.23
 3 8 8 0.54 0.18
 3 8 9 0.47 0.16
 3 9 3 1.74 0.14
 3 9 4 0.19 0.16
 3 9 5 0.8 0.11
 3 9 6 1.48 0.12
 3 9 7 0.16 0.15
 3 9 8 0.05 0.16
 3 9 9 0.23 0.13
 3 10 3 0.77 0.11
 3 10 4 4.98 0.13
 3 10 5 1.28 0.12
 3 10 6 2.73 0.23
 3 10 7 0.2 0.15
 3 10 8 0.08 0.22
 3 11 3 0.04 0.13
 3 11 4 3.11 0.25
 3 11 5 0.35 0.12
 3 11 6 0.12 0.2
 3 11 7 0.19 0.14
 3 12 3 0.21 0.13
 3 12 4 0.32 0.12
 3 12 5 1.04 0.12
 3 12 6 0.23 0.16
 3 12 7 0.02 0.08
 3 13 3 5.27 0.15
 3 13 4 0.05 0.17
 3 13 5 0.21 0.15
 3 13 6 0.12 0.18
 3 14 3 0.07 0.21
 3 14 4 0.15 0.14
 3 15 3 0.06 0.19
 4 0 4 4.33 0.18
 4 0 6 0.64 0.19
 4 0 8 0.16 0.19
 4 0 10 0.81 0.18
 4 1 4 0.05 0.17
 4 1 5 3.13 0.31
 4 1 6 1 0.13
 4 1 7 0.14 0.18
 4 1 8 0.47 0.11
 4 1 9 0.43 0.12
 4 1 10 0.55 0.13
 4 2 4 0.95 0.11
 4 2 5 1.47 0.12
 4 2 6 1.19 0.24
 4 2 7 0.12 0.18
 4 2 8 1.53 0.12
 4 2 9 0.27 0.14
 4 2 10 0.44 0.32
 4 3 4 1.57 0.31
 4 3 5 0.04 0.17
 4 3 6 0.07 0.19
 4 3 7 0.16 0.16
 4 3 8 0.11 0.18
 4 3 9 0.94 0.12
 4 3 10 0.06 0.2
 4 4 4 0.12 0.19
 4 4 5 0.11 0.17
 4 4 6 0.22 0.15
 4 4 7 3.97 0.13
 4 4 8 0.03 0.11
 4 4 9 0.87 0.12
 4 4 10 0.08 0.23
 4 5 4 8.95 0.75
 4 5 5 1.23 0.37
 4 5 6 0.68 0.12
 4 5 7 0.42 0.11
 4 5 8 0.71 0.12
 4 5 9 0.11 0.19
 4 6 4 1.85 0.13
 4 6 5 0.72 0.13
 4 6 6 1.27 0.11
 4 6 7 0.32 0.12
 4 6 8 1.79 0.13
 4 6 9 0.12 0.2
 4 7 4 2.25 0.11
 4 7 5 2.48 0.23
 4 7 6 3.01 0.34
 4 7 7 0.74 0.12
 4 7 8 0.08 0.23
 4 7 9 0.11 0.22
 4 8 4 2.61 0.12
 4 8 5 0.13 0.14
 4 8 6 0.36 0.13
 4 8 7 0.38 0.13
 4 8 8 0.03 0.13
 4 9 4 1.55 0.18
 4 9 5 4.4 0.14
 4 9 6 0.8 0.19
 4 9 7 0.68 0.13
 4 9 8 0.1 0.21
 4 10 4 0.08 0.21
 4 10 5 0.78 0.25
 4 10 6 0.07 0.21
 4 10 7 0.05 0.18
 4 11 4 1.2 0.15
 4 11 5 0.38 0.25
 4 11 6 1.04 0.25
 4 12 4 0.78 0.12
 4 12 5 0.13 0.18
 4 13 4 0.11 0.2
 5 0 5 0.19 0.17
 5 0 7 0.11 0.22
 5 0 9 0.4 0.19
 5 1 5 3.73 0.21
 5 1 6 2.65 0.24
 5 1 7 0.21 0.13
 5 1 8 0.35 0.13
 5 1 9 0.11 0.18
 5 2 5 0.09 0.21
 5 2 6 0.17 0.16
 5 2 7 0.25 0.13
 5 2 8 0.12 0.2
 5 2 9 0.22 0.16
 5 3 5 2.26 0.19
 5 3 6 0.28 0.14
 5 3 7 0.97 0.17
 5 3 8 0.2 0.15
 5 3 9 0.32 0.14
 5 4 5 0.56 0.11
 5 4 6 0.44 0.12
 5 4 7 0.2 0.14
 5 4 8 0.18 0.2
 5 4 9 0.08 0.22
 5 5 5 0.05 0.15
 5 5 6 0.07 0.2
 5 5 7 0.39 0.13
 5 5 8 0.36 0.13
 5 6 5 0.15 0.15
 5 6 6 0.29 0.13
 5 6 7 0.47 0.17
 5 6 8 0.18 0.2
 5 7 5 0.91 0.19
 5 7 6 0.07 0.2
 5 7 7 0.09 0.19
 5 7 8 0.28 0.14
 5 8 5 0.56 0.12
 5 8 6 0.19 0.19
 5 8 7 0.16 0.2
 5 9 5 0.04 0.15
 5 9 6 0.67 0.13
 5 9 7 0.06 0.15
 5 10 5 0.17 0.2
 5 10 6 0.38 0.16
 5 11 5 0.69 0.16
 6 0 6 2.29 0.18
 6 0 8 0.05 0.21
 6 1 6 0.22 0.13
 6 1 7 0.17 0.15
 6 1 8 0.05 0.17
 6 2 6 0.01 0.05
 6 2 7 0.49 0.13
 6 2 8 0.22 0.15
 6 3 6 0.41 0.13
 6 3 7 0.36 0.13
 6 4 6 0.51 0.13
 6 4 7 0.04 0.13
 6 5 6 0.28 0.14
 6 5 7 0.09 0.24
 6 6 6 0.17 0.2
 6 6 7 0.26 0.17
 6 7 6 0.03 0.13
 6 8 6 0.17 0.17

_iucr_refine_fcf_details
;
data_epoxide
_computing_structure_refinement   'ShelXL (Sheldrick, 2015)'
_shelx_refln_list_code            4
loop_
  _space_group_symop_id
  _space_group_symop_operation_xyz
  1  x,y,z
  2  -x+1/2,y+1/2,-z+1/2
  3  -x,-y,-z
  4  x-1/2,-y-1/2,z-1/2

_space_group_crystal_system       monoclinic
_space_group_IT_number            14
_space_group_name_H-M_alt         'P 1 21/n 1'
_space_group_name_Hall            '-P 2ybc (x-z,y,z)'
_symmetry_space_group_name_H-M    'P 1 21/n 1'
_symmetry_space_group_name_Hall   '-P 2ybc (x-z,y,z)'
_symmetry_Int_Tables_number       14
_cell_length_a                    4.633(5)
_cell_length_b                    8.400(1)
_cell_length_c                    6.577(3)
_cell_angle_alpha                 90
_cell_angle_beta                  100.37(6)
_cell_angle_gamma                 90
_cell_volume                      251.8(3)
loop_
  _refln_index_h
  _refln_index_k
  _refln_index_l
  _refln_F_squared_calc
  _refln_F_squared_meas
  _refln_F_squared_sigma
  _refln_F_squared_weight
  _refln_observed_status
-9 0 1 0.112 0.149 0.229 52.893 o
-9 0 3 0.044 0.030 0.169 96.899 o
-9 0 5 0.178 0.249 0.199 69.777 o
-9 1 0 0.005 0.080 0.189 77.580 o
-9 1 1 0.090 0.070 0.209 63.478 o
-9 1 2 0.014 0.030 0.139 142.893 o
-9 1 3 0.001 0.189 0.159 109.350 o
-9 1 4 0.077 0.199 0.189 77.484 o
-9 2 0 0.003 0.090 0.229 52.944 o
-9 2 1 0.008 0.040 0.149 124.478 o
-9 2 2 0.053 0.129 0.199 69.985 o
-9 2 3 0.018 0.169 0.199 69.994 o
-9 2 4 0.055 0.090 0.199 69.995 o
-9 3 1 0.001 0.070 0.219 57.867 o
-9 3 2 0.011 0.010 0.070 571.563 o
-9 3 3 0.087 0.060 0.199 69.986 o
-8 0 -4 0.232 0.119 0.249 44.721 o
-8 0 -2 0.000 0.070 0.259 41.432 o
-8 0 0 2.440 1.961 0.179 55.615 o
-8 0 2 3.240 3.394 0.199 36.178 o
-8 0 4 0.525 0.428 0.169 94.184 o
-8 0 6 0.681 0.637 0.179 82.540 o
-8 0 8 1.195 1.294 0.199 61.957 o
-8 1 -4 0.000 0.169 0.199 70.003 o
-8 1 -3 0.003 0.129 0.199 70.010 o
-8 1 -2 0.263 0.159 0.179 85.968 o
-8 1 -1 0.000 0.129 0.189 77.573 o
-8 1 0 0.072 0.020 0.109 231.284 o
-8 1 1 0.237 0.199 0.139 141.648 o
-8 1 2 0.631 0.567 0.179 83.150 o
-8 1 3 0.421 0.468 0.348 22.742 o
-8 1 4 0.302 0.438 0.209 62.919 o
-8 1 5 0.002 0.139 0.199 70.008 o
-8 1 6 0.116 0.139 0.169 96.740 o
-8 1 7 0.067 0.129 0.199 69.975 o
-8 1 8 0.009 0.050 0.189 77.583 o
-8 2 -4 0.002 0.199 0.199 69.995 o
-8 2 -3 0.084 0.179 0.159 109.213 o
-8 2 -2 0.000 0.060 0.199 70.020 o
-8 2 -1 0.499 0.438 0.129 158.325 o
-8 2 0 0.067 0.020 0.100 279.834 o
-8 2 1 2.748 2.518 0.687 5.593 o
-8 2 2 0.006 0.109 0.199 70.013 o
-8 2 3 1.041 1.045 0.338 23.468 o
-8 2 4 0.594 0.627 0.119 178.795 o
-8 2 5 0.262 0.348 0.209 63.094 o
-8 2 6 0.240 0.219 0.139 141.545 o
-8 2 7 0.895 0.966 0.129 141.351 o
-8 2 8 0.031 0.010 0.050 1119.460 o
-8 3 -3 0.299 0.368 0.239 48.326 o
-8 3 -2 0.053 0.149 0.209 63.476 o
-8 3 -1 1.058 0.906 0.139 121.217 o
-8 3 0 0.116 0.328 0.129 164.563 o
-8 3 1 0.003 0.060 0.199 70.019 o
-8 3 2 0.049 0.159 0.189 77.533 o
-8 3 3 0.638 0.836 0.328 25.322 o
-8 3 4 0.000 0.239 0.179 86.389 o
-8 3 5 0.009 0.040 0.169 96.912 o
-8 3 6 0.000 0.139 0.169 96.892 o
-8 3 7 0.001 0.050 0.179 86.445 o
-8 3 8 0.003 0.119 0.219 57.862 o
-8 4 -3 0.006 0.090 0.229 52.943 o
-8 4 -2 0.041 0.070 0.209 63.500 o
-8 4 -1 0.060 0.100 0.209 63.486 o
-8 4 0 0.654 0.647 0.199 67.544 o
-8 4 1 0.165 0.090 0.189 77.443 o
-8 4 2 0.619 0.647 0.119 177.687 o
-8 4 3 0.381 0.279 0.129 161.761 o
-8 4 4 0.127 0.100 0.199 69.939 o
-8 4 5 1.091 1.125 0.229 49.054 o
-8 4 6 0.244 0.249 0.139 141.396 o
-8 4 7 0.001 0.040 0.159 109.407 o
-8 5 -3 0.001 0.109 0.189 77.577 o
-8 5 -2 0.928 0.737 0.189 72.410 o
-8 5 -1 0.075 0.100 0.159 109.307 o
-8 5 0 0.631 0.637 0.319 26.988 o
-8 5 1 0.008 0.159 0.199 70.002 o
-8 5 2 0.066 0.100 0.239 48.609 o
-8 5 3 0.185 0.070 0.209 63.406 o
-8 5 4 0.154 0.358 0.129 164.078 o
-8 5 5 0.005 0.060 0.199 70.019 o
-8 5 6 0.007 0.159 0.199 70.002 o
-8 5 7 0.171 0.219 0.189 77.328 o
-8 6 -2 0.000 0.179 0.159 109.357 o
-8 6 -1 0.085 0.020 0.119 194.321 o
-8 6 0 0.310 0.239 0.179 85.698 o
-8 6 1 0.035 0.159 0.209 63.483 o
-8 6 2 0.030 0.219 0.189 77.523 o
-8 6 3 0.022 0.239 0.189 77.521 o
-8 6 4 0.575 0.587 0.139 134.927 o
-8 6 5 0.092 0.229 0.149 124.121 o
-8 6 6 0.105 0.100 0.209 63.460 o
-8 7 -1 0.459 0.468 0.129 158.803 o
-8 7 0 0.009 0.060 0.199 70.018 o
-8 7 1 0.056 0.219 0.189 77.497 o
-8 7 2 0.495 0.607 0.129 156.669 o
-8 7 3 0.029 0.199 0.149 124.344 o
-8 7 4 0.109 0.100 0.179 86.344 o
-8 7 5 0.031 0.070 0.219 57.862 o
-8 8 1 0.291 0.279 0.139 140.857 o
-8 8 2 0.021 0.129 0.199 70.002 o
-8 8 3 0.000 0.129 0.199 70.011 o
-7 0 -5 0.601 0.567 0.179 83.358 o
-7 0 -3 0.736 0.597 0.159 102.812 o
-7 0 -1 0.123 0.119 0.209 63.438 o
-7 0 1 0.047 0.090 0.259 41.425 o
-7 0 3 4.175 4.340 0.189 28.608 o
-7 0 5 0.826 0.906 0.169 89.171 o
-7 0 7 0.596 0.627 0.189 74.949 o
-7 0 9 0.001 0.119 0.239 48.622 o
-7 1 -6 0.020 0.050 0.179 86.439 o
-7 1 -5 0.151 0.229 0.249 44.737 o
-7 1 -4 0.092 0.169 0.179 86.320 o
-7 1 -3 0.000 0.100 0.159 109.394 o
-7 1 -2 0.555 0.547 0.119 181.242 o
-7 1 -1 0.590 0.508 0.119 180.785 o
-7 1 0 4.248 3.902 0.886 3.291 o
-7 1 1 5.878 5.564 1.095 2.114 o
-7 1 2 5.695 5.783 0.916 2.919 o
-7 1 3 1.986 2.090 0.219 44.809 o
-7 1 4 0.479 0.547 0.159 105.815 o
-7 1 5 0.741 0.677 0.119 173.033 o
-7 1 6 0.208 0.219 0.119 192.435 o
-7 1 7 0.381 0.518 0.119 186.377 o
-7 1 8 0.074 0.090 0.199 69.984 o
-7 1 9 0.040 0.010 0.070 571.246 o
-7 1 10 0.134 0.199 0.169 96.637 o
-7 2 -6 0.034 0.159 0.159 109.326 o
-7 2 -5 0.026 0.309 0.239 48.585 o
-7 2 -4 0.507 0.428 0.179 84.370 o
-7 2 -3 0.114 0.080 0.179 86.350 o
-7 2 -2 0.008 0.050 0.169 96.911 o
-7 2 -1 0.705 0.468 0.179 82.980 o
-7 2 0 0.137 0.030 0.109 230.800 o
-7 2 1 0.018 0.129 0.189 77.565 o
-7 2 2 1.580 1.632 0.229 45.386 o
-7 2 3 1.837 1.851 0.368 18.846 o
-7 2 4 3.258 3.345 0.219 32.680 o
-7 2 5 1.376 1.423 0.119 132.793 o
-7 2 6 0.007 0.070 0.199 70.018 o
-7 2 7 0.020 0.060 0.189 77.579 o
-7 2 8 0.062 0.100 0.169 96.852 o
-7 2 9 0.022 0.060 0.199 70.015 o
-7 2 10 0.381 0.269 0.159 107.692 o
-7 3 -6 0.292 0.209 0.149 123.166 o
-7 3 -5 0.008 0.030 0.129 165.725 o
-7 3 -4 0.010 0.109 0.209 63.503 o
-7 3 -3 0.448 0.418 0.139 138.226 o
-7 3 -2 0.143 0.169 0.129 164.958 o
-7 3 -1 1.891 1.782 0.119 106.594 o
-7 3 0 0.897 0.886 0.209 59.779 o
-7 3 1 2.546 2.588 0.468 11.501 o
-7 3 2 2.432 2.319 0.418 14.275 o
-7 3 3 1.335 1.194 0.119 139.112 o
-7 3 4 0.262 0.368 0.209 63.075 o
-7 3 5 0.278 0.408 0.189 76.827 o
-7 3 6 1.474 1.543 0.129 113.669 o
-7 3 7 0.006 0.100 0.169 96.901 o
-7 3 8 0.045 0.149 0.199 69.984 o
-7 3 9 0.302 0.279 0.189 76.949 o
-7 4 -6 0.068 0.109 0.299 31.113 o
-7 4 -5 0.001 0.129 0.199 70.011 o
-7 4 -4 0.016 0.060 0.189 77.580 o
-7 4 -3 0.004 0.040 0.159 109.406 o
-7 4 -2 0.663 0.567 0.189 74.736 o
-7 4 -1 0.103 0.199 0.149 124.138 o
-7 4 0 0.922 0.687 0.119 166.158 o
-7 4 1 0.210 0.418 0.119 190.925 o
-7 4 2 1.200 1.185 0.119 144.905 o
-7 4 3 2.568 2.717 0.199 43.991 o
-7 4 4 4.918 5.236 0.786 3.938 o
-7 4 5 1.384 1.463 0.189 65.182 o
-7 4 6 0.513 0.597 0.119 181.752 o
-7 4 7 0.226 0.100 0.199 69.819 o
-7 4 8 0.004 0.070 0.209 63.509 o
-7 4 9 0.397 0.378 0.129 160.713 o
-7 5 -5 0.164 0.050 0.179 86.302 o
-7 5 -4 0.084 0.100 0.179 86.374 o
-7 5 -3 0.085 0.040 0.149 124.392 o
-7 5 -2 0.816 0.766 0.249 43.286 o
-7 5 -1 0.034 0.129 0.179 86.407 o
-7 5 0 0.331 0.368 0.119 189.155 o
-7 5 1 0.603 0.388 0.129 156.696 o
-7 5 2 0.006 0.129 0.189 77.571 o
-7 5 3 0.003 0.060 0.179 86.443 o
-7 5 4 0.381 0.368 0.119 188.104 o
-7 5 5 1.215 1.483 0.129 122.977 o
-7 5 6 0.479 0.508 0.139 137.138 o
-7 5 7 0.052 0.249 0.139 142.553 o
-7 5 8 0.078 0.398 0.279 35.672 o
-7 5 9 0.303 0.338 0.129 162.438 o
-7 6 -5 0.002 0.100 0.249 44.811 o
-7 6 -4 0.310 0.199 0.159 108.322 o
-7 6 -3 0.016 0.010 0.090 345.760 o
-7 6 -2 0.175 0.109 0.179 86.232 o
-7 6 -1 0.778 0.587 0.159 102.358 o
-7 6 0 0.044 0.169 0.179 86.380 o
-7 6 1 0.000 0.129 0.179 86.430 o
-7 6 2 0.823 0.886 0.328 25.151 o
-7 6 3 3.311 3.354 0.139 48.461 o
-7 6 4 1.285 1.463 0.129 121.011 o
-7 6 5 1.462 1.613 0.129 112.934 o
-7 6 6 1.368 1.493 0.219 50.684 o
-7 6 7 0.038 0.169 0.159 109.312 o
-7 6 8 1.213 1.065 0.129 129.808 o
-7 7 -4 0.019 0.368 0.279 35.697 o
-7 7 -3 0.215 0.149 0.209 63.328 o
-7 7 -2 0.010 0.100 0.179 86.433 o
-7 7 -1 0.061 0.149 0.159 109.289 o
-7 7 0 0.042 0.109 0.209 63.491 o
-7 7 1 0.664 0.627 0.119 176.518 o
-7 7 2 0.033 0.129 0.179 86.408 o
-7 7 3 0.164 0.119 0.179 86.242 o
-7 7 4 0.211 0.239 0.179 86.001 o
-7 7 5 0.674 0.587 0.119 176.839 o
-7 7 6 0.078 0.209 0.179 86.311 o
-7 7 7 0.135 0.040 0.159 109.252 o
-7 7 8 0.084 0.199 0.189 77.476 o
-7 8 -3 0.398 0.528 0.129 159.388 o
-7 8 -2 0.014 0.179 0.159 109.340 o
-7 8 -1 0.007 0.040 0.129 165.723 o
-7 8 0 0.072 0.020 0.109 231.284 o
-7 8 1 0.332 0.348 0.129 161.959 o
-7 8 2 0.570 0.657 0.169 92.928 o
-7 8 3 0.211 0.229 0.209 63.279 o
-7 8 4 0.940 0.846 0.119 162.349 o
-7 8 5 0.672 0.806 0.119 173.182 o
-7 8 6 0.013 0.179 0.149 124.395 o
-7 8 7 1.759 1.851 0.129 100.155 o
-7 9 -2 0.045 0.139 0.209 63.483 o
-7 9 -1 0.135 0.149 0.209 63.415 o
-7 9 0 0.428 0.567 0.299 30.855 o
-7 9 1 0.050 0.139 0.169 96.843 o
-7 9 2 1.053 0.836 0.119 158.046 o
-7 9 3 0.000 0.060 0.199 70.020 o
-7 9 4 0.033 0.100 0.239 48.618 o
-7 9 5 0.013 0.030 0.109 231.456 o
-7 9 6 0.432 0.468 0.129 159.314 o
-7 10 -1 0.008 0.129 0.199 70.008 o
-7 10 0 0.243 0.159 0.199 69.743 o
-7 10 1 0.072 0.139 0.199 69.969 o
-7 10 2 0.029 0.189 0.199 69.981 o
-7 10 3 0.157 0.289 0.189 77.288 o
-7 10 4 0.001 0.020 0.119 194.504 o
-7 10 5 0.013 0.060 0.179 86.440 o
-6 0 -4 5.123 3.992 0.189 24.593 o
-6 0 -2 1.052 0.816 0.189 71.139 o
-6 0 0 2.148 2.289 0.209 46.113 o
-6 0 2 8.228 8.690 0.239 9.328 o
-6 0 4 0.585 0.567 0.179 83.463 o
-6 0 6 20.010 19.340 0.528 1.715 o
-6 0 8 7.427 7.605 0.209 11.784 o
-6 0 10 0.255 0.219 0.199 69.667 o
-6 1 -5 0.760 0.547 0.129 151.079 o
-6 1 -4 2.007 1.642 0.109 114.899 o
-6 1 -3 1.610 1.105 0.109 145.280 o
-6 1 -2 1.420 0.985 0.100 179.370 o
-6 1 -1 0.014 0.010 0.090 345.767 o
-6 1 0 0.792 0.677 0.179 81.512 o
-6 1 1 1.082 1.224 0.209 57.744 o
-6 1 2 0.126 0.239 0.219 57.759 o
-6 1 3 0.116 0.109 0.209 63.448 o
-6 1 4 7.953 9.187 0.488 5.814 o
-6 1 5 0.513 0.687 0.189 75.243 o
-6 1 6 1.168 1.194 0.139 114.871 o
-6 1 7 0.151 0.279 0.119 192.771 o
-6 1 8 0.911 0.816 0.119 164.086 o
-6 1 9 0.071 0.219 0.129 165.243 o
-6 1 10 0.030 0.040 0.149 124.463 o
-6 1 11 0.180 0.249 0.119 192.601 o
-6 2 -5 3.089 2.598 0.428 13.060 o
-6 2 -4 0.192 0.100 0.199 69.866 o
-6 2 -3 1.742 1.473 0.209 52.322 o
-6 2 -2 3.259 2.757 0.119 59.075 o
-6 2 -1 0.269 0.408 0.269 38.241 o
-6 2 0 1.893 2.060 0.259 34.701 o
-6 2 1 3.658 4.201 0.209 29.483 o
-6 2 2 0.414 0.388 0.129 160.347 o
-6 2 3 1.456 1.772 0.129 110.616 o
-6 2 4 0.281 0.279 0.139 140.955 o
-6 2 5 7.842 7.684 0.607 4.815 o
-6 2 6 0.210 0.189 0.119 192.605 o
-6 2 7 11.332 11.407 0.398 4.626 o
-6 2 8 0.051 0.199 0.149 124.291 o
-6 2 9 1.089 0.936 0.119 154.585 o
-6 2 10 0.620 0.657 0.149 117.289 o
-6 2 11 0.098 0.219 0.169 96.695 o
-6 3 -5 0.070 0.070 0.139 142.781 o
-6 3 -4 0.304 0.249 0.129 163.021 o
-6 3 -3 2.608 2.488 0.119 75.336 o
-6 3 -2 0.084 0.030 0.139 142.793 o
-6 3 -1 0.294 0.139 0.209 63.221 o
-6 3 0 0.000 0.109 0.179 86.435 o
-6 3 1 0.078 0.229 0.129 165.180 o
-6 3 2 0.033 0.090 0.189 77.567 o
-6 3 3 12.078 14.861 0.269 4.262 o
-6 3 4 0.191 0.458 0.189 77.008 o
-6 3 5 12.701 13.149 0.687 2.676 o
-6 3 6 0.090 0.159 0.169 96.769 o
-6 3 7 0.000 0.050 0.169 96.913 o
-6 3 8 0.045 0.090 0.169 96.876 o
-6 3 9 0.837 0.826 0.119 166.726 o
-6 3 10 0.167 0.139 0.209 63.388 o
-6 3 11 0.016 0.159 0.179 86.410 o
-6 4 -5 0.027 0.090 0.149 124.440 o
-6 4 -4 0.640 0.538 0.119 178.768 o
-6 4 -3 2.131 2.120 0.119 93.271 o
-6 4 -2 0.030 0.020 0.109 231.432 o
-6 4 -1 6.745 6.261 0.169 15.680 o
-6 4 0 0.119 0.249 0.179 86.205 o
-6 4 1 0.021 0.159 0.189 77.554 o
-6 4 2 0.680 1.005 0.129 147.042 o
-6 4 3 2.151 2.200 0.269 31.427 o
-6 4 4 0.571 0.677 0.109 209.491 o
-6 4 5 0.120 0.169 0.159 109.135 o
-6 4 6 3.912 3.783 0.478 9.929 o
-6 4 7 0.375 0.299 0.119 188.966 o
-6 4 8 0.979 1.055 0.109 179.726 o
-6 4 9 0.809 0.796 0.319 26.768 o
-6 4 10 0.060 0.129 0.189 77.536 o
-6 5 -5 0.000 0.070 0.209 63.510 o
-6 5 -4 0.384 0.468 0.109 220.800 o
-6 5 -3 0.103 0.100 0.179 86.352 o
-6 5 -2 1.467 1.165 0.119 134.366 o
-6 5 -1 0.318 0.229 0.119 190.703 o
-6 5 0 0.623 0.677 0.119 177.060 o
-6 5 1 1.582 1.563 0.119 121.903 o
-6 5 2 6.769 7.087 0.139 15.317 o
-6 5 3 0.005 0.159 0.159 109.363 o
-6 5 4 17.709 18.405 0.368 2.243 o
-6 5 5 0.491 0.528 0.109 215.873 o
-6 5 6 3.061 3.354 0.129 54.526 o
-6 5 7 0.259 0.179 0.139 141.557 o
-6 5 8 0.392 0.538 0.119 185.855 o
-6 5 9 0.669 0.627 0.179 82.663 o
-6 5 10 0.105 0.219 0.149 124.096 o
-6 6 -5 0.000 0.159 0.189 77.566 o
-6 6 -4 0.003 0.030 0.109 231.469 o
-6 6 -3 0.005 0.030 0.119 194.499 o
-6 6 -2 3.007 2.658 0.129 61.212 o
-6 6 -1 0.006 0.149 0.149 124.429 o
-6 6 0 1.184 1.214 0.119 144.923 o
-6 6 1 0.055 0.020 0.090 345.513 o
-6 6 2 1.571 1.364 0.119 126.232 o
-6 6 3 0.355 0.239 0.119 189.947 o
-6 6 4 0.125 0.189 0.169 96.668 o
-6 6 5 0.267 0.348 0.119 190.561 o
-6 6 6 1.662 1.752 0.119 115.311 o
-6 6 7 0.000 0.109 0.179 86.435 o
-6 6 8 0.011 0.189 0.179 86.401 o
-6 6 9 0.002 0.109 0.159 109.389 o
-6 6 10 0.645 0.627 0.129 152.971 o
-6 7 -5 0.033 0.070 0.219 57.861 o
-6 7 -4 0.557 0.418 0.189 75.697 o
-6 7 -3 0.341 0.189 0.139 140.813 o
-6 7 -2 0.024 0.766 0.508 10.758 o
-6 7 -1 0.874 0.677 0.119 168.138 o
-6 7 0 3.165 3.096 0.249 28.995 o
-6 7 1 2.877 2.807 0.299 23.710 o
-6 7 2 2.098 2.289 0.119 91.707 o
-6 7 3 8.278 8.103 0.508 5.676 o
-6 7 4 0.131 0.139 0.139 142.455 o
-6 7 5 4.253 4.101 0.129 35.953 o
-6 7 6 0.051 0.219 0.169 96.785 o
-6 7 7 0.038 0.040 0.169 96.899 o
-6 7 8 1.374 1.234 0.119 136.731 o
-6 7 9 0.053 0.050 0.159 109.370 o
-6 8 -5 0.310 0.428 0.129 161.702 o
-6 8 -4 0.110 0.189 0.149 124.129 o
-6 8 -3 0.005 0.010 0.050 1120.290 o
-6 8 -2 0.011 0.119 0.179 86.427 o
-6 8 -1 0.309 0.299 0.139 140.588 o
-6 8 0 0.016 0.030 0.139 142.892 o
-6 8 1 0.378 0.368 0.129 161.105 o
-6 8 2 1.029 0.856 0.169 87.101 o
-6 8 3 0.458 0.468 0.119 185.052 o
-6 8 4 0.276 0.319 0.119 190.651 o
-6 8 5 1.079 1.135 0.129 133.005 o
-6 8 6 0.452 0.518 0.119 184.575 o
-6 8 7 1.063 1.314 0.129 130.618 o
-6 8 8 0.181 0.299 0.139 141.689 o
-6 8 9 0.017 0.159 0.179 86.409 o
-6 9 -5 0.272 0.289 0.139 140.992 o
-6 9 -4 0.000 0.040 0.169 96.915 o
-6 9 -3 0.507 0.468 0.189 75.816 o
-6 9 -2 0.155 0.169 0.149 123.999 o
-6 9 -1 0.628 0.687 0.269 37.673 o
-6 9 0 1.126 0.886 0.269 36.528 o
-6 9 1 3.430 3.285 0.438 12.016 o
-6 9 2 2.230 2.090 0.279 29.526 o
-6 9 3 0.261 0.299 0.119 191.083 o
-6 9 4 0.970 1.135 0.119 155.353 o
-6 9 5 0.002 0.080 0.169 96.907 o
-6 9 6 0.049 0.139 0.179 86.390 o
-6 9 7 0.870 0.896 0.179 79.870 o
-6 9 8 0.017 0.149 0.149 124.413 o
-6 10 -4 0.280 0.319 0.139 140.775 o
-6 10 -3 0.024 0.080 0.229 52.941 o
-6 10 -2 0.145 0.169 0.159 109.066 o
-6 10 -1 0.291 0.199 0.189 77.088 o
-6 10 0 0.289 0.299 0.129 162.896 o
-6 10 1 0.198 0.159 0.149 123.832 o
-6 10 2 0.244 0.199 0.139 141.593 o
-6 10 3 0.776 0.856 0.119 168.479 o
-6 10 4 0.308 0.309 0.129 162.579 o
-6 10 5 0.132 0.189 0.189 77.418 o
-6 10 6 1.090 1.224 0.179 76.016 o
-6 10 7 0.476 0.518 0.129 157.990 o
-6 11 -3 0.003 0.129 0.209 63.502 o
-6 11 -2 0.006 0.189 0.199 69.995 o
-6 11 -1 0.192 0.169 0.199 69.817 o
-6 11 0 0.876 0.896 0.119 163.899 o
-6 11 1 0.707 0.737 0.358 21.320 o
-6 11 2 0.481 0.229 0.149 121.547 o
-6 11 3 0.036 0.070 0.199 70.009 o
-6 11 4 0.003 0.139 0.209 63.501 o
-6 11 5 0.141 0.209 0.169 96.608 o
-6 11 6 0.157 0.508 0.348 22.816 o
-6 12 -1 0.422 0.468 0.149 120.937 o
-6 12 0 0.139 0.100 0.249 44.775 o
-6 12 1 0.120 0.209 0.149 124.056 o
-6 12 2 0.284 0.418 0.129 162.158 o
-6 12 3 0.139 0.090 0.199 69.932 o
-6 12 4 0.028 0.129 0.189 77.559 o
-5 0 -3 7.200 6.679 0.219 12.793 o
-5 0 -1 0.631 0.309 0.159 105.506 o
-5 0 1 18.612 20.127 0.498 1.852 o
-5 0 3 2.030 2.210 0.149 74.520 o
-5 0 5 10.791 11.348 0.279 5.664 o
-5 0 7 0.481 0.756 0.189 75.228 o
-5 0 9 2.264 2.269 0.169 60.068 o
-5 0 11 0.043 0.070 0.239 48.619 o
-5 1 -4 7.048 6.928 0.159 14.346 o
-5 1 -3 1.626 1.314 0.189 63.512 o
-5 1 -2 0.099 0.199 0.169 96.713 o
-5 1 -1 10.210 8.700 0.159 7.979 o
-5 1 0 6.788 6.341 0.906 2.857 o
-5 1 1 7.554 7.734 0.338 8.868 o
-5 1 2 4.215 4.071 0.119 37.661 o
-5 1 3 0.129 0.299 0.189 77.332 o
-5 1 4 7.614 7.824 0.149 12.370 o
-5 1 5 5.574 6.062 0.169 19.645 o
-5 1 6 19.186 20.903 0.408 1.847 o
-5 1 7 17.367 19.141 0.338 2.278 o
-5 1 8 7.633 7.625 0.378 8.107 o
-5 1 9 1.673 1.782 0.129 103.783 o
-5 1 10 0.051 0.100 0.179 86.405 o
-5 1 11 0.381 0.338 0.129 161.304 o
-5 1 12 0.116 0.219 0.129 164.968 o
-5 2 -4 2.572 3.096 0.309 22.929 o
-5 2 -3 5.908 6.082 0.428 9.099 o
-5 2 -2 7.709 7.167 0.637 4.627 o
-5 2 -1 6.931 6.271 0.199 14.322 o
-5 2 0 0.746 0.966 0.100 227.353 o
-5 2 1 0.124 0.189 0.119 193.518 o
-5 2 2 5.824 6.341 0.139 19.481 o
-5 2 3 0.602 0.816 0.109 204.967 o
-5 2 4 3.709 4.220 0.129 40.660 o
-5 2 5 2.867 3.325 0.129 57.872 o
-5 2 6 4.405 4.688 0.149 30.303 o
-5 2 7 0.093 0.109 0.169 96.805 o
-5 2 8 1.153 0.966 0.139 118.136 o
-5 2 9 2.688 2.399 0.119 74.493 o
-5 2 10 1.079 1.055 0.119 152.543 o
-5 2 11 0.567 0.607 0.129 155.058 o
-5 3 -4 1.439 1.503 0.139 103.874 o
-5 3 -3 2.018 2.379 0.358 19.264 o
-5 3 -2 3.875 4.151 0.309 18.617 o
-5 3 -1 0.018 0.050 0.179 86.440 o
-5 3 0 15.830 14.155 0.348 3.018 o
-5 3 1 2.818 2.548 0.209 40.127 o
-5 3 2 0.292 0.279 0.109 226.135 o
-5 3 3 11.923 12.701 0.239 4.912 o
-5 3 4 2.040 2.289 0.119 93.461 o
-5 3 5 14.470 15.409 0.299 3.315 o
-5 3 6 6.521 6.888 0.577 5.730 o
-5 3 7 5.363 5.415 0.179 21.155 o
-5 3 8 5.177 5.276 0.199 20.941 o
-5 3 9 0.642 0.667 0.219 56.173 o
-5 3 10 0.098 0.119 0.189 77.505 o
-5 3 11 0.020 0.060 0.189 77.579 o
-5 4 -4 2.996 3.016 0.209 37.226 o
-5 4 -3 5.757 6.570 0.906 2.937 o
-5 4 -2 16.916 17.320 1.394 0.945 o
-5 4 -1 5.603 5.534 0.139 22.028 o
-5 4 0 2.415 2.548 0.119 79.372 o
-5 4 1 0.496 0.557 0.109 215.094 o
-5 4 2 0.089 0.040 0.149 124.383 o
-5 4 3 1.663 1.901 0.119 112.546 o
-5 4 4 4.455 5.246 0.139 29.021 o
-5 4 5 2.859 3.046 0.139 57.068 o
-5 4 6 1.679 1.951 0.139 92.091 o
-5 4 7 0.256 0.299 0.109 226.755 o
-5 4 8 3.831 3.544 0.129 43.028 o
-5 4 9 1.955 1.941 0.279 30.597 o
-5 4 10 3.623 3.474 0.129 45.910 o
-5 4 11 0.256 0.289 0.179 85.797 o
-5 5 -4 0.000 0.010 0.060 778.017 o
-5 5 -3 0.463 0.637 0.129 157.021 o
-5 5 -2 0.818 1.155 0.139 123.984 o
-5 5 -1 9.275 8.869 0.627 4.086 o
-5 5 0 0.849 0.926 0.139 125.925 o
-5 5 1 1.396 1.364 0.169 78.835 o
-5 5 2 3.776 3.852 0.129 41.926 o
-5 5 3 4.283 4.688 0.478 9.405 o
-5 5 4 10.498 10.999 0.259 6.083 o
-5 5 5 0.007 0.050 0.179 86.443 o
-5 5 6 1.004 0.966 0.109 180.798 o
-5 5 7 3.264 3.245 0.119 54.863 o
-5 5 8 0.020 0.309 0.259 41.405 o
-5 5 9 0.096 0.149 0.179 86.328 o
-5 5 10 0.166 0.179 0.149 123.932 o
-5 5 11 0.196 0.149 0.149 123.866 o
-5 6 -4 1.577 1.632 0.119 120.776 o
-5 6 -3 7.562 6.639 0.239 11.701 o
-5 6 -2 5.270 5.913 0.159 21.632 o
-5 6 -1 5.834 6.072 0.159 19.136 o
-5 6 0 9.657 10.113 0.667 3.585 o
-5 6 1 0.459 0.587 0.119 183.431 o
-5 6 2 8.936 10.004 0.478 5.299 o
-5 6 3 0.211 0.219 0.179 86.029 o
-5 6 4 1.912 2.269 0.129 89.914 o
-5 6 5 4.560 4.211 1.394 1.381 o
-5 6 6 0.437 0.458 0.109 219.155 o
-5 6 7 0.214 0.199 0.119 192.489 o
-5 6 8 1.585 1.593 0.119 121.217 o
-5 6 9 4.208 4.041 0.139 35.382 o
-5 6 10 0.584 0.627 0.129 154.428 o
-5 6 11 0.439 0.438 0.129 159.465 o
-5 7 -4 0.112 0.179 0.149 124.139 o
-5 7 -3 0.366 0.279 0.119 189.353 o
-5 7 -2 1.646 1.642 0.219 48.505 o
-5 7 -1 2.254 2.060 0.309 24.861 o
-5 7 0 1.904 2.021 0.139 85.805 o
-5 7 1 0.386 0.577 0.219 57.045 o
-5 7 2 0.097 0.468 0.299 31.063 o
-5 7 3 3.644 3.514 0.169 38.012 o
-5 7 4 0.118 0.299 0.159 108.944 o
-5 7 5 0.225 0.219 0.129 164.061 o
-5 7 6 0.845 0.707 0.119 168.667 o
-5 7 7 2.140 2.160 0.119 92.394 o
-5 7 8 0.274 0.249 0.129 163.378 o
-5 7 9 0.101 0.010 0.080 436.459 o
-5 7 10 0.022 0.100 0.169 96.890 o
-5 8 -4 0.515 0.538 0.109 214.748 o
-5 8 -3 0.823 0.956 0.239 46.529 o
-5 8 -2 2.162 1.812 0.119 97.093 o
-5 8 -1 4.916 4.469 0.468 9.355 o
-5 8 0 0.154 0.219 0.119 193.075 o
-5 8 1 14.330 13.557 1.593 0.863 o
-5 8 2 1.061 1.045 0.109 175.626 o
-5 8 3 5.181 5.315 0.348 12.918 o
-5 8 4 0.888 0.985 0.109 186.405 o
-5 8 5 0.478 0.428 0.119 185.052 o
-5 8 6 0.385 0.408 0.129 160.666 o
-5 8 7 1.511 1.573 0.119 124.486 o
-5 8 8 1.124 1.045 0.119 150.882 o
-5 8 9 0.192 0.269 0.119 192.324 o
-5 8 10 0.437 0.587 0.129 158.070 o
-5 9 -4 1.924 1.841 0.129 95.511 o
-5 9 -3 0.068 0.109 0.169 96.839 o
-5 9 -2 0.030 0.080 0.149 124.443 o
-5 9 -1 0.058 0.070 0.179 86.412 o
-5 9 0 2.002 1.971 0.119 99.690 o
-5 9 1 0.102 0.159 0.159 109.193 o
-5 9 2 0.053 0.219 0.169 96.780 o
-5 9 3 0.816 0.697 0.109 197.526 o
-5 9 4 0.198 0.348 0.109 227.487 o
-5 9 5 1.457 1.364 0.119 130.752 o
-5 9 6 2.361 2.240 0.259 32.492 o
-5 9 7 0.295 0.139 0.159 108.542 o
-5 9 8 1.402 1.632 0.179 70.104 o
-5 9 9 0.004 0.070 0.199 70.018 o
-5 10 -4 0.054 0.149 0.189 77.533 o
-5 10 -3 0.057 0.159 0.189 77.525 o
-5 10 -2 0.092 0.139 0.189 77.501 o
-5 10 -1 0.109 0.169 0.129 165.170 o
-5 10 0 4.252 4.390 0.438 10.882 o
-5 10 1 1.071 1.105 0.119 151.827 o
-5 10 2 5.913 6.092 0.806 3.594 o
-5 10 3 0.053 0.189 0.129 165.408 o
-5 10 4 0.009 0.169 0.139 142.805 o
-5 10 5 0.109 0.269 0.149 123.981 o
-5 10 6 1.542 1.523 0.119 124.231 o
-5 10 7 0.081 0.119 0.179 86.366 o
-5 10 8 0.033 0.050 0.129 165.683 o
-5 11 -4 0.000 0.030 0.139 142.900 o
-5 11 -3 0.277 0.428 0.179 85.472 o
-5 11 -2 0.140 0.119 0.189 77.456 o
-5 11 -1 0.465 0.398 0.189 76.158 o
-5 11 0 0.099 0.229 0.129 165.048 o
-5 11 1 0.245 0.219 0.129 163.863 o
-5 11 2 1.219 1.165 0.129 128.001 o
-5 11 3 0.052 0.050 0.169 96.887 o
-5 11 4 3.654 3.852 0.468 10.424 o
-5 11 5 0.531 0.577 0.119 181.517 o
-5 11 6 0.804 0.956 0.299 30.272 o
-5 11 7 1.256 1.523 0.229 47.356 o
-5 11 8 0.007 0.050 0.199 70.020 o
-5 12 -4 0.004 0.020 0.119 194.503 o
-5 12 -3 0.130 0.229 0.159 109.019 o
-5 12 -2 0.164 0.239 0.189 77.323 o
-5 12 -1 0.019 0.080 0.209 63.505 o
-5 12 0 0.246 0.139 0.199 69.756 o
-5 12 1 1.553 1.782 0.159 80.553 o
-5 12 2 0.025 0.169 0.189 77.548 o
-5 12 3 0.132 0.169 0.159 109.103 o
-5 12 4 0.002 0.129 0.159 109.380 o
-5 12 5 0.797 0.816 0.129 146.406 o
-5 12 6 0.077 0.139 0.159 109.269 o
-5 13 -2 0.016 0.109 0.189 77.571 o
-5 13 -1 0.390 0.458 0.129 160.160 o
-5 13 0 0.077 0.159 0.179 86.347 o
-5 13 1 0.075 0.199 0.169 96.760 o
-5 13 2 0.002 0.139 0.209 63.501 o
-5 13 3 2.707 2.727 0.209 40.280 o
-5 13 4 0.027 0.119 0.179 86.416 o
-5 13 5 1.462 1.662 0.129 112.175 o
-5 14 1 0.070 0.060 0.139 142.791 o
-5 14 2 0.039 0.169 0.229 52.923 o
-4 0 -2 12.974 12.801 0.319 4.127 o
-4 0 0 195.454 189.344 1.722 0.021 o
-4 0 2 107.159 111.444 1.294 0.066 o
-4 0 4 1.874 1.901 0.189 57.931 o
-4 0 6 5.405 5.863 0.189 19.617 o
-4 0 8 7.448 7.665 0.239 11.074 o
-4 0 10 0.618 0.557 0.159 104.381 o
-4 0 12 3.226 2.996 0.199 37.719 o
-4 1 -3 0.419 0.438 0.139 138.483 o
-4 1 -2 20.072 17.579 1.802 0.615 o
-4 1 -1 0.131 0.020 0.090 344.486 o
-4 1 0 1.602 1.175 0.100 161.337 o
-4 1 1 11.330 13.099 0.239 5.108 o
-4 1 2 38.127 41.229 0.577 0.497 o
-4 1 3 5.941 6.848 0.129 18.484 o
-4 1 4 2.649 2.817 0.100 79.419 o
-4 1 5 4.437 4.410 0.119 34.109 o
-4 1 6 5.700 6.022 0.139 20.582 o
-4 1 7 2.914 3.126 0.129 58.765 o
-4 1 8 0.231 0.080 0.209 63.350 o
-4 1 9 0.203 0.179 0.119 192.744 o
-4 1 10 3.665 3.195 0.259 25.436 o
-4 1 11 0.285 0.169 0.149 123.338 o
-4 1 12 0.208 0.149 0.149 123.811 o
-4 2 -3 0.165 0.159 0.119 193.277 o
-4 2 -2 1.485 1.214 0.199 59.953 o
-4 2 -1 58.101 53.035 0.677 0.245 o
-4 2 0 1.272 1.742 0.139 105.093 o
-4 2 1 126.508 124.613 1.423 0.049 o
-4 2 2 3.344 3.573 0.100 55.558 o
-4 2 3 13.973 14.344 0.279 3.662 o
-4 2 4 23.197 25.392 0.587 1.204 o
-4 2 5 0.631 1.035 0.109 198.294 o
-4 2 6 1.808 1.772 0.119 109.656 o
-4 2 7 7.691 8.132 0.159 11.779 o
-4 2 8 1.975 1.961 0.139 84.855 o
-4 2 9 0.689 0.717 0.109 203.220 o
-4 2 10 0.477 0.368 0.119 185.837 o
-4 2 11 2.138 1.921 0.149 75.206 o
-4 2 12 0.003 0.030 0.139 142.899 o
-4 3 -3 21.113 22.247 2.717 0.310 o
-4 3 -2 3.429 3.464 0.518 8.998 o
-4 3 -1 44.534 38.791 0.707 0.413 o
-4 3 0 2.654 2.688 0.299 24.455 o
-4 3 1 6.561 6.171 0.189 15.651 o
-4 3 2 0.012 0.139 0.109 231.283 o
-4 3 3 36.807 38.074 0.587 0.545 o
-4 3 4 1.878 1.722 0.109 118.589 o
-4 3 5 0.093 0.139 0.159 109.236 o
-4 3 6 0.719 0.786 0.119 171.851 o
-4 3 7 0.107 0.109 0.189 77.501 o
-4 3 8 0.072 0.109 0.159 109.305 o
-4 3 9 8.433 7.605 0.149 11.101 o
-4 3 10 0.022 0.020 0.100 280.045 o
-4 3 11 2.856 2.827 0.129 62.402 o
-4 3 12 0.000 0.060 0.189 77.584 o
-4 4 -3 5.070 4.887 0.259 18.157 o
-4 4 -2 3.624 3.733 0.269 23.501 o
-4 4 -1 0.668 0.826 0.100 237.453 o
-4 4 0 28.518 25.980 1.354 0.623 o
-4 4 1 2.704 2.488 0.100 82.556 o
-4 4 2 14.005 13.448 0.269 3.824 o
-4 4 3 23.591 25.920 0.836 1.016 o
-4 4 4 0.591 0.538 0.149 118.513 o
-4 4 5 19.226 20.824 0.368 1.886 o
-4 4 6 2.133 2.150 0.119 92.736 o
-4 4 7 1.372 1.364 0.129 119.818 o
-4 4 8 1.751 1.672 0.109 125.184 o
-4 4 9 3.520 3.275 0.129 48.510 o
-4 4 10 0.119 0.070 0.209 63.460 o
-4 4 11 0.005 0.129 0.159 109.378 o
-4 4 12 0.390 0.458 0.119 186.869 o
-4 5 -3 1.019 0.856 0.119 159.030 o
-4 5 -2 40.191 42.035 0.697 0.449 o
-4 5 -1 4.301 4.111 0.129 35.490 o
-4 5 0 7.572 7.346 0.259 10.702 o
-4 5 1 0.998 1.095 0.100 204.959 o
-4 5 2 20.359 20.007 0.348 1.821 o
-4 5 3 5.527 5.355 0.179 20.633 o
-4 5 4 11.615 12.233 0.209 5.317 o
-4 5 5 0.495 0.647 0.119 181.534 o
-4 5 6 1.452 1.473 0.129 115.489 o
-4 5 7 2.248 2.459 0.139 73.386 o
-4 5 8 7.921 7.217 0.229 10.900 o
-4 5 9 0.012 0.139 0.139 142.828 o
-4 5 10 6.579 6.271 0.468 7.657 o
-4 5 11 0.107 0.119 0.179 86.334 o
-4 6 -3 1.243 1.015 0.129 129.647 o
-4 6 -2 0.375 0.219 0.149 122.522 o
-4 6 -1 0.589 0.617 0.109 210.022 o
-4 6 0 9.874 9.566 0.179 7.733 o
-4 6 1 0.034 0.159 0.119 194.240 o
-4 6 2 0.029 0.139 0.149 124.401 o
-4 6 3 0.219 0.050 0.159 109.021 o
-4 6 4 17.391 17.619 0.577 2.015 o
-4 6 5 1.100 0.985 0.119 153.091 o
-4 6 6 0.280 0.378 0.129 162.482 o
-4 6 7 0.507 0.358 0.159 106.408 o
-4 6 8 4.466 4.390 0.129 32.949 o
-4 6 9 0.000 0.060 0.189 77.584 o
-4 6 10 0.228 0.299 0.129 163.621 o
-4 6 11 0.001 0.030 0.109 231.471 o
-4 7 -3 11.267 12.084 0.378 4.635 o
-4 7 -2 0.820 0.567 0.119 172.142 o
-4 7 -1 11.901 12.243 0.229 5.078 o
-4 7 0 0.115 0.119 0.179 86.322 o
-4 7 1 0.105 0.129 0.159 109.222 o
-4 7 2 9.827 9.864 0.249 7.057 o
-4 7 3 6.153 6.380 0.338 11.222 o
-4 7 4 0.006 0.060 0.189 77.583 o
-4 7 5 3.468 3.554 0.358 16.301 o
-4 7 6 10.172 9.934 0.547 4.280 o
-4 7 7 5.326 4.738 0.129 25.982 o
-4 7 8 1.848 1.792 0.129 98.421 o
-4 7 9 5.321 4.987 0.169 22.837 o
-4 7 10 0.150 0.129 0.199 69.899 o
-4 7 11 0.642 0.647 0.129 152.784 o
-4 8 -3 0.509 0.528 0.199 68.453 o
-4 8 -2 0.383 0.418 0.189 76.447 o
-4 8 -1 4.372 4.639 0.149 30.700 o
-4 8 0 3.227 2.887 0.139 52.768 o
-4 8 1 8.932 8.998 0.179 9.055 o
-4 8 2 1.146 1.105 0.129 131.312 o
-4 8 3 0.195 0.219 0.129 164.354 o
-4 8 4 1.560 1.483 0.159 83.042 o
-4 8 5 0.414 0.478 0.100 262.866 o
-4 8 6 0.607 0.667 0.109 208.141 o
-4 8 7 1.944 1.851 0.109 113.189 o
-4 8 8 0.165 0.368 0.119 192.016 o
-4 8 9 0.439 0.508 0.159 106.349 o
-4 8 10 0.002 0.050 0.159 109.405 o
-4 9 -3 0.704 0.697 0.109 202.953 o
-4 9 -2 1.032 1.145 0.139 118.920 o
-4 9 -1 0.001 0.050 0.159 109.406 o
-4 9 0 0.150 0.219 0.179 86.172 o
-4 9 1 4.638 5.086 0.159 26.735 o
-4 9 2 0.031 0.179 0.179 86.388 o
-4 9 3 2.297 2.250 0.249 34.803 o
-4 9 4 0.647 0.577 0.109 208.331 o
-4 9 5 5.624 5.773 0.149 20.953 o
-4 9 6 2.793 2.449 0.159 55.600 o
-4 9 7 6.009 6.480 0.687 4.611 o
-4 9 8 2.448 2.349 0.129 75.599 o
-4 9 9 0.021 0.269 0.129 165.369 o
-4 9 10 0.240 0.179 0.159 108.700 o
-4 10 -3 1.955 2.080 0.119 99.421 o
-4 10 -2 0.879 0.816 0.109 191.266 o
-4 10 -1 0.445 0.468 0.109 218.704 o
-4 10 0 6.549 6.201 0.139 17.233 o
-4 10 1 2.338 2.031 0.159 65.353 o
-4 10 2 3.654 3.514 0.428 12.186 o
-4 10 3 1.038 1.095 0.169 85.502 o
-4 10 4 0.735 0.647 0.348 22.548 o
-4 10 5 2.765 2.568 0.199 42.978 o
-4 10 6 1.154 0.747 0.119 155.783 o
-4 10 7 0.050 0.030 0.129 165.670 o
-4 10 8 0.222 0.159 0.179 86.075 o
-4 10 9 0.200 0.179 0.159 108.863 o
-4 11 -3 0.110 0.030 0.129 165.499 o
-4 11 -2 0.021 0.239 0.169 96.815 o
-4 11 -1 0.771 0.657 0.119 172.306 o
-4 11 0 0.477 0.647 0.119 182.065 o
-4 11 1 0.038 0.060 0.169 96.893 o
-4 11 2 1.900 2.110 0.219 45.320 o
-4 11 3 0.446 0.448 0.109 219.022 o
-4 11 4 0.370 0.239 0.119 189.670 o
-4 11 5 0.379 0.219 0.169 95.704 o
-4 11 6 3.327 3.554 0.129 49.229 o
-4 11 7 1.077 0.866 0.119 156.468 o
-4 11 8 0.241 0.368 0.119 190.822 o
-4 12 -3 0.294 0.309 0.129 162.760 o
-4 12 -2 0.335 0.478 0.119 187.902 o
-4 12 -1 1.321 1.145 0.129 125.019 o
-4 12 0 0.371 0.418 0.139 139.237 o
-4 12 1 1.888 1.722 0.159 75.290 o
-4 12 2 0.283 0.239 0.119 191.203 o
-4 12 3 2.021 1.931 0.169 65.765 o
-4 12 4 3.657 3.723 0.219 29.435 o
-4 12 5 1.660 1.523 0.149 88.906 o
-4 12 6 0.323 0.249 0.139 140.700 o
-4 12 7 0.137 0.179 0.169 96.653 o
-4 12 8 0.315 0.348 0.129 162.209 o
-4 13 -3 0.012 0.050 0.179 86.442 o
-4 13 -2 1.335 1.354 0.149 97.548 o
-4 13 -1 0.002 0.149 0.169 96.886 o
-4 13 0 0.319 0.169 0.189 77.054 o
-4 13 1 0.218 0.219 0.149 123.578 o
-4 13 2 0.753 0.916 0.119 168.213 o
-4 13 3 0.006 0.149 0.199 70.005 o
-4 13 4 0.121 0.219 0.169 96.643 o
-4 13 5 0.341 0.458 0.139 139.359 o
-4 13 6 0.403 0.408 0.149 121.432 o
-4 14 -3 0.266 0.179 0.179 85.931 o
-4 14 -2 0.279 0.408 0.209 63.001 o
-4 14 -1 0.039 0.040 0.169 96.899 o
-4 14 0 0.058 0.239 0.199 69.937 o
-4 14 1 0.134 0.199 0.139 142.297 o
-4 14 2 0.320 0.249 0.139 140.725 o
-4 14 3 1.749 2.080 0.129 97.105 o
-4 14 4 1.182 1.234 0.129 128.076 o
-4 14 5 0.844 0.906 0.129 143.766 o
-4 15 0 0.000 0.149 0.199 70.007 o
-4 15 1 0.080 0.030 0.109 231.215 o
-4 15 2 0.009 0.060 0.229 52.945 o
-3 0 -1 57.614 52.149 0.796 0.246 o
-3 0 1 1.890 1.891 0.100 125.347 o
-3 0 3 79.376 88.939 1.065 0.113 o
-3 0 5 1.574 1.812 0.129 106.349 o
-3 0 7 10.926 10.273 0.289 5.834 o
-3 0 9 0.330 0.289 0.169 95.772 o
-3 0 11 3.911 3.673 0.199 30.875 o
-3 1 -2 24.620 22.605 2.100 0.435 o
-3 1 -1 23.319 21.381 1.413 0.739 o
-3 1 0 169.893 157.402 7.296 0.019 o
-3 1 1 258.529 263.650 10.193 0.008 o
-3 1 2 140.335 151.330 4.887 0.029 o
-3 1 3 14.085 16.902 0.259 3.306 o
-3 1 4 1.562 1.234 0.538 9.371 o
-3 1 5 41.104 42.235 0.995 0.403 o
-3 1 6 15.585 16.424 0.319 2.882 o
-3 1 7 5.225 5.176 0.129 25.321 o
-3 1 8 3.194 3.175 0.129 53.859 o
-3 1 9 0.088 0.129 0.129 165.382 o
-3 1 10 1.983 1.603 0.179 63.229 o
-3 1 11 0.776 0.577 0.119 173.545 o
-3 1 12 1.589 1.503 0.090 169.619 o
-3 2 -2 4.282 4.220 0.299 18.339 o
-3 2 -1 17.776 16.086 0.677 1.885 o
-3 2 0 21.743 21.291 0.567 1.447 o
-3 2 1 5.114 4.410 0.159 25.975 o
-3 2 2 43.666 47.371 1.324 0.321 o
-3 2 3 81.122 79.124 2.648 0.095 o
-3 2 4 44.543 47.769 0.896 0.350 o
-3 2 5 15.337 15.369 0.289 3.120 o
-3 2 6 1.141 1.065 0.219 53.147 o
-3 2 7 0.046 0.070 0.189 77.565 o
-3 2 8 0.587 0.478 0.119 181.323 o
-3 2 9 0.027 0.229 0.189 77.521 o
-3 2 10 3.059 2.608 0.119 64.203 o
-3 2 11 0.183 0.189 0.169 96.522 o
-3 2 12 0.947 1.035 0.100 210.708 o
-3 3 -2 15.088 14.125 0.269 3.391 o
-3 3 -1 39.132 33.216 2.120 0.301 o
-3 3 0 47.561 41.816 3.862 0.126 o
-3 3 1 35.829 33.346 0.478 0.628 o
-3 3 2 68.791 63.994 0.876 0.171 o
-3 3 3 5.221 5.067 0.119 26.247 o
-3 3 4 17.757 18.066 0.289 2.362 o
-3 3 5 0.661 0.826 0.159 102.334 o
-3 3 6 14.621 14.234 0.249 3.555 o
-3 3 7 4.098 4.240 0.129 36.732 o
-3 3 8 1.956 2.220 0.209 47.855 o
-3 3 9 5.126 4.648 0.129 27.432 o
-3 3 10 0.804 0.846 0.109 194.376 o
-3 3 11 1.991 1.961 0.100 118.927 o
-3 3 12 0.628 0.567 0.100 248.384 o
-3 4 -2 13.880 12.841 0.219 4.113 o
-3 4 -1 1.663 3.872 2.369 0.493 o
-3 4 0 9.689 8.401 0.458 5.516 o
-3 4 1 14.279 13.806 0.627 2.580 o
-3 4 2 88.516 86.211 0.766 0.103 o
-3 4 3 57.960 62.461 0.816 0.217 o
-3 4 4 91.973 91.178 0.866 0.094 o
-3 4 5 14.165 15.478 0.398 3.124 o
-3 4 6 1.164 1.314 0.189 67.995 o
-3 4 7 0.813 0.876 0.109 193.121 o
-3 4 8 0.401 0.269 0.169 95.466 o
-3 4 9 1.681 1.384 0.109 135.034 o
-3 4 10 0.591 0.627 0.169 92.876 o
-3 4 11 0.717 0.737 0.100 237.220 o
-3 4 12 0.040 0.060 0.159 109.378 o
-3 5 -2 24.383 21.879 0.338 1.379 o
-3 5 -1 1.602 1.244 0.100 159.168 o
-3 5 0 0.653 0.428 0.090 302.673 o
-3 5 1 26.007 24.029 0.776 0.991 o
-3 5 2 0.792 0.946 0.090 265.388 o
-3 5 3 0.081 0.050 0.139 142.777 o
-3 5 4 3.287 2.877 0.109 60.389 o
-3 5 5 10.631 10.193 0.199 6.674 o
-3 5 6 1.370 1.204 0.109 154.996 o
-3 5 7 0.476 0.438 0.119 184.975 o
-3 5 8 2.627 2.200 0.149 63.912 o
-3 5 9 4.010 3.733 0.179 32.796 o
-3 5 10 2.325 1.901 0.119 90.737 o
-3 5 11 0.006 0.109 0.139 142.861 o
-3 5 12 0.030 0.129 0.119 194.322 o
-3 6 -2 0.014 0.070 0.149 124.464 o
-3 6 -1 16.958 16.145 0.557 2.196 o
-3 6 0 13.471 13.119 0.896 1.964 o
-3 6 1 5.045 4.648 0.109 29.343 o
-3 6 2 28.843 30.360 0.538 0.857 o
-3 6 3 82.960 79.413 0.876 0.117 o
-3 6 4 22.588 23.870 0.946 1.025 o
-3 6 5 11.616 11.427 0.219 5.498 o
-3 6 6 13.605 13.985 0.259 3.896 o
-3 6 7 1.340 1.732 0.289 30.587 o
-3 6 8 5.380 4.619 0.378 11.910 o
-3 6 9 0.043 0.199 0.119 194.086 o
-3 6 10 0.387 0.358 0.100 266.963 o
-3 6 11 0.572 0.567 0.100 251.769 o
-3 6 12 0.108 0.179 0.159 109.154 o
-3 7 -2 2.488 2.120 0.139 71.955 o
-3 7 -1 0.026 0.030 0.109 231.428 o
-3 7 0 0.396 0.358 0.109 222.151 o
-3 7 1 19.462 19.231 0.468 1.844 o
-3 7 2 0.624 0.667 0.269 37.694 o
-3 7 3 0.549 0.647 0.119 179.919 o
-3 7 4 1.499 1.603 0.109 138.482 o
-3 7 5 10.794 12.373 1.752 0.791 o
-3 7 6 0.001 0.040 0.159 109.407 o
-3 7 7 0.661 0.707 0.189 74.337 o
-3 7 8 1.717 1.603 0.139 95.469 o
-3 7 9 1.218 1.115 0.119 145.565 o
-3 7 10 0.129 0.249 0.129 164.772 o
-3 7 11 0.001 0.119 0.169 96.897 o
-3 8 -2 1.114 1.105 0.249 41.953 o
-3 8 -1 8.811 8.361 0.309 7.885 o
-3 8 0 2.095 2.041 0.109 103.725 o
-3 8 1 16.967 16.394 0.518 2.254 o
-3 8 2 11.243 10.561 0.209 6.047 o
-3 8 3 6.479 6.649 0.229 13.973 o
-3 8 4 8.941 8.929 0.229 8.520 o
-3 8 5 11.312 11.417 0.717 2.908 o
-3 8 6 0.794 0.846 0.129 146.076 o
-3 8 7 12.510 11.417 0.836 2.305 o
-3 8 8 0.413 0.328 0.149 121.712 o
-3 8 9 1.332 1.214 0.269 35.602 o
-3 8 10 0.494 0.458 0.100 259.272 o
-3 8 11 0.282 0.309 0.100 272.131 o
-3 9 -2 0.109 0.229 0.139 142.348 o
-3 9 -1 1.420 1.473 0.119 130.023 o
-3 9 0 13.485 13.239 0.249 4.101 o
-3 9 1 0.200 0.169 0.139 142.002 o
-3 9 2 12.566 12.920 0.239 4.567 o
-3 9 3 0.000 0.070 0.219 57.867 o
-3 9 4 2.885 3.116 0.139 56.131 o
-3 9 5 0.248 0.139 0.149 123.635 o
-3 9 6 5.721 5.514 0.607 5.806 o
-3 9 7 0.222 0.199 0.119 192.392 o
-3 9 8 0.006 0.070 0.199 70.018 o
-3 9 9 0.117 0.149 0.199 69.924 o
-3 9 10 0.007 0.179 0.119 194.312 o
-3 10 -2 0.968 0.747 0.109 188.478 o
-3 10 -1 0.189 0.388 0.338 24.182 o
-3 10 0 9.960 9.665 0.458 5.115 o
-3 10 1 0.004 0.050 0.179 86.444 o
-3 10 2 0.943 1.035 0.159 97.004 o
-3 10 3 0.327 0.617 0.388 18.340 o
-3 10 4 0.370 0.328 0.109 223.396 o
-3 10 5 0.674 0.587 0.109 206.903 o
-3 10 6 6.680 6.161 0.289 12.159 o
-3 10 7 0.684 0.756 0.129 150.334 o
-3 10 8 3.026 2.857 0.378 16.018 o
-3 10 9 0.105 0.159 0.119 193.806 o
-3 10 10 0.093 0.139 0.129 165.336 o
-3 11 -2 7.419 7.465 0.219 11.704 o
-3 11 -1 1.434 1.453 0.119 129.862 o
-3 11 0 1.567 1.672 0.100 148.497 o
-3 11 1 7.265 7.157 0.219 12.236 o
-3 11 2 0.006 0.070 0.189 77.582 o
-3 11 3 0.062 0.070 0.189 77.556 o
-3 11 4 0.733 0.647 0.109 202.782 o
-3 11 5 3.264 3.424 0.189 37.795 o
-3 11 6 0.387 0.299 0.119 188.712 o
-3 11 7 0.341 0.358 0.229 52.534 o
-3 11 8 0.677 0.677 0.199 67.359 o
-3 11 9 0.010 0.010 0.050 1120.210 o
-3 12 -2 0.407 0.518 0.109 219.167 o
-3 12 -1 2.900 2.648 0.249 31.158 o
-3 12 0 0.096 0.159 0.159 109.207 o
-3 12 1 0.475 0.498 0.119 184.219 o
-3 12 2 0.175 0.209 0.119 192.899 o
-3 12 3 1.042 1.214 0.119 150.786 o
-3 12 4 1.095 0.916 0.119 154.733 o
-3 12 5 0.144 0.328 0.129 164.314 o
-3 12 6 0.305 0.328 0.129 162.487 o
-3 12 7 1.715 1.802 0.119 112.483 o
-3 12 8 0.088 0.040 0.149 124.386 o
-3 13 -2 0.001 0.109 0.179 86.435 o
-3 13 -1 3.783 4.041 0.139 39.276 o
-3 13 0 0.409 0.328 0.119 187.927 o
-3 13 1 0.049 0.139 0.169 96.845 o
-3 13 2 0.075 0.249 0.129 165.138 o
-3 13 3 0.168 0.289 0.199 69.761 o
-3 13 4 0.463 0.269 0.129 160.524 o
-3 13 5 0.782 0.717 0.119 170.827 o
-3 13 6 0.116 0.169 0.129 165.127 o
-3 13 7 0.175 0.299 0.169 96.380 o
-3 14 -2 0.288 0.309 0.169 95.919 o
-3 14 -1 0.655 0.677 0.179 82.584 o
-3 14 0 0.255 0.348 0.129 163.000 o
-3 14 1 0.048 0.707 0.547 9.252 o
-3 14 2 0.725 0.657 0.119 173.921 o
-3 14 3 0.593 0.687 0.139 133.717 o
-3 14 4 0.580 0.727 0.129 153.328 o
-3 14 5 0.130 0.319 0.119 192.791 o
-3 14 6 0.112 0.159 0.179 86.297 o
-3 15 -2 2.039 2.210 0.159 68.701 o
-3 15 -1 0.043 0.209 0.179 86.358 o
-3 15 0 0.206 0.239 0.129 164.155 o
-3 15 1 0.210 0.209 0.139 141.803 o
-3 15 2 0.001 0.109 0.189 77.577 o
-3 15 3 0.196 0.199 0.169 96.471 o
-3 15 4 0.334 0.448 0.169 95.341 o
-2 0 0 68.233 66.463 0.707 0.172 o
-2 0 2 173.992 201.498 1.324 0.024 o
-2 0 4 74.383 78.298 0.946 0.135 o
-2 0 6 191.660 193.544 1.782 0.021 o
-2 0 8 25.805 24.168 0.408 1.181 o
-2 0 10 0.061 0.100 0.159 109.330 o
-2 0 12 0.168 0.189 0.169 96.564 o
-2 1 -1 54.700 54.040 2.797 0.154 o
-2 1 0 100.834 95.448 2.638 0.068 o
-2 1 1 136.161 129.242 5.206 0.031 o
-2 1 2 7.767 8.809 0.159 11.070 o
-2 1 3 8.642 10.183 0.289 7.497 o
-2 1 4 150.614 154.236 2.011 0.033 o
-2 1 5 8.837 10.083 0.189 8.442 o
-2 1 6 2.496 3.016 0.159 55.783 o
-2 1 7 0.497 0.528 0.100 257.229 o
-2 1 8 5.441 5.086 0.139 23.844 o
-2 1 9 0.079 0.219 0.109 230.440 o
-2 1 10 0.011 0.109 0.149 124.447 o
-2 1 11 1.396 1.294 0.090 193.050 o
-2 1 12 0.646 0.657 0.119 176.625 o
-2 1 13 0.235 0.219 0.149 123.486 o
-2 2 -1 9.128 9.884 0.358 6.461 o
-2 2 0 13.567 14.105 0.269 3.860 o
-2 2 1 104.375 101.480 1.274 0.073 o
-2 2 2 96.776 101.779 1.354 0.079 o
-2 2 3 0.691 0.577 0.159 103.457 o
-2 2 4 17.362 23.252 0.408 1.921 o
-2 2 5 130.982 138.350 1.443 0.044 o
-2 2 6 0.284 0.090 0.159 108.707 o
-2 2 7 60.637 58.410 0.776 0.215 o
-2 2 8 1.203 1.304 0.139 112.560 o
-2 2 9 1.677 1.513 0.090 162.952 o
-2 2 10 1.825 1.792 0.080 157.667 o
-2 2 11 0.026 0.100 0.159 109.372 o
-2 2 12 0.002 0.139 0.169 96.891 o
-2 3 -1 3.670 4.270 0.378 14.281 o
-2 3 0 5.526 5.256 0.328 13.277 o
-2 3 1 0.000 0.040 0.109 231.467 o
-2 3 2 2.217 1.692 0.070 145.125 o
-2 3 3 227.231 228.801 6.689 0.012 o
-2 3 4 0.000 0.159 0.119 194.375 o
-2 3 5 77.421 80.070 0.776 0.129 o
-2 3 6 0.092 0.259 0.179 86.247 o
-2 3 7 4.494 4.191 0.169 29.311 o
-2 3 8 1.709 1.722 0.149 85.811 o
-2 3 9 5.236 5.196 0.119 25.789 o
-2 3 10 1.416 1.334 0.090 189.785 o
-2 3 11 0.011 0.070 0.139 142.880 o
-2 3 12 0.205 0.388 0.129 163.374 o
-2 4 -1 110.198 97.210 4.240 0.049 o
-2 4 0 0.658 0.119 0.090 315.015 o
-2 4 1 38.757 39.876 0.946 0.452 o
-2 4 2 6.113 4.828 0.129 21.795 o
-2 4 3 99.735 113.883 2.110 0.066 o
-2 4 4 14.273 15.956 0.538 2.663 o
-2 4 5 0.057 0.060 0.159 109.361 o
-2 4 6 24.665 24.099 0.707 1.088 o
-2 4 7 0.229 0.169 0.129 164.261 o
-2 4 8 2.608 2.498 0.100 85.282 o
-2 4 9 4.391 4.240 0.090 38.270 o
-2 4 10 0.037 0.070 0.139 142.845 o
-2 4 11 0.808 0.985 0.100 222.372 o
-2 4 12 0.196 0.129 0.159 108.965 o
-2 5 -1 11.880 10.989 0.627 3.256 o
-2 5 0 5.014 4.808 0.199 22.504 o
-2 5 1 19.757 20.386 0.428 1.793 o
-2 5 2 79.334 75.053 0.697 0.131 o
-2 5 3 2.706 1.881 0.229 38.202 o
-2 5 4 125.443 123.051 3.454 0.043 o
-2 5 5 3.101 2.707 0.209 37.562 o
-2 5 6 2.551 2.339 0.309 23.869 o
-2 5 7 2.525 2.558 0.189 48.035 o
-2 5 8 8.138 8.740 0.269 8.946 o
-2 5 9 2.256 2.011 0.070 131.933 o
-2 5 10 1.331 1.324 0.100 173.978 o
-2 5 11 0.005 0.080 0.169 96.907 o
-2 5 12 0.060 0.100 0.149 124.382 o
-2 6 -1 0.000 0.080 0.129 165.709 o
-2 6 0 5.720 4.907 0.109 24.426 o
-2 6 1 0.272 0.388 0.090 332.120 o
-2 6 2 56.506 58.061 2.429 0.163 o
-2 6 3 1.497 1.175 0.100 168.040 o
-2 6 4 2.653 3.106 0.209 39.306 o
-2 6 5 0.029 0.129 0.149 124.409 o
-2 6 6 7.576 7.416 0.149 12.850 o
-2 6 7 0.201 0.269 0.109 228.213 o
-2 6 8 0.161 0.189 0.109 229.576 o
-2 6 9 0.006 0.100 0.139 142.868 o
-2 6 10 1.819 1.822 0.149 82.525 o
-2 6 11 0.271 0.259 0.119 191.235 o
-2 6 12 0.030 0.060 0.129 165.679 o
-2 7 -1 25.646 25.402 0.597 1.070 o
-2 7 0 71.962 68.095 0.737 0.157 o
-2 7 1 36.014 36.013 0.975 0.515 o
-2 7 2 11.905 11.795 0.358 4.546 o
-2 7 3 59.509 57.215 2.060 0.173 o
-2 7 4 5.140 4.947 0.129 26.453 o
-2 7 5 12.881 11.566 0.348 4.262 o
-2 7 6 0.067 0.040 0.149 124.420 o
-2 7 7 0.886 1.085 0.129 139.818 o
-2 7 8 3.231 2.907 0.209 36.012 o
-2 7 9 1.462 1.732 0.249 39.551 o
-2 7 10 0.027 0.050 0.159 109.392 o
-2 7 11 0.233 0.259 0.100 274.542 o
-2 8 -1 6.368 6.201 0.129 18.125 o
-2 8 0 0.059 0.030 0.109 231.319 o
-2 8 1 4.951 4.658 0.119 29.248 o
-2 8 2 6.695 6.420 0.129 16.721 o
-2 8 3 3.029 2.827 0.119 62.666 o
-2 8 4 0.068 0.319 0.139 142.329 o
-2 8 5 9.301 9.367 0.229 7.932 o
-2 8 6 6.180 5.933 0.129 19.274 o
-2 8 7 4.219 4.021 0.100 40.253 o
-2 8 8 0.569 0.627 0.090 301.278 o
-2 8 9 0.123 0.189 0.149 124.082 o
-2 8 10 0.528 0.468 0.100 257.197 o
-2 8 11 0.004 0.060 0.159 109.402 o
-2 9 -1 27.834 26.448 0.557 0.965 o
-2 9 0 16.308 16.474 0.418 2.543 o
-2 9 1 42.655 43.588 1.583 0.315 o
-2 9 2 14.105 14.453 0.528 2.860 o
-2 9 3 0.231 0.259 0.119 191.852 o
-2 9 4 2.594 2.329 0.169 55.373 o
-2 9 5 0.566 0.717 0.129 153.786 o
-2 9 6 0.002 0.119 0.159 109.385 o
-2 9 7 1.683 1.772 0.129 103.621 o
-2 9 8 0.004 0.100 0.159 109.391 o
-2 9 9 0.086 0.279 0.199 69.885 o
-2 9 10 0.012 0.090 0.169 96.900 o
-2 10 -1 3.293 3.394 0.129 50.806 o
-2 10 0 0.413 0.567 0.209 62.457 o
-2 10 1 3.199 3.195 0.129 53.635 o
-2 10 2 0.074 0.060 0.199 69.993 o
-2 10 3 3.434 3.474 0.139 46.183 o
-2 10 4 5.191 5.495 0.219 19.298 o
-2 10 5 2.623 2.419 0.199 44.782 o
-2 10 6 7.249 6.848 0.438 7.601 o
-2 10 7 1.868 1.792 0.179 63.475 o
-2 10 8 0.824 0.866 0.090 266.147 o
-2 10 9 0.491 0.378 0.229 52.246 o
-2 10 10 0.067 0.129 0.169 96.828 o
-2 11 -1 2.489 2.389 0.139 69.273 o
-2 11 0 15.016 15.011 1.214 1.236 o
-2 11 1 4.061 4.061 0.348 15.608 o
-2 11 2 3.413 3.573 0.149 43.755 o
-2 11 3 0.063 0.199 0.109 230.707 o
-2 11 4 0.311 0.299 0.149 122.710 o
-2 11 5 0.755 0.816 0.179 81.243 o
-2 11 6 0.144 0.109 0.159 109.151 o
-2 11 7 0.241 0.319 0.119 191.238 o
-2 11 8 0.262 0.179 0.129 163.888 o
-2 11 9 0.466 0.468 0.199 68.732 o
-2 12 -1 1.993 2.240 0.119 95.666 o
-2 12 0 0.179 0.388 0.119 191.666 o
-2 12 1 0.048 0.050 0.159 109.375 o
-2 12 2 4.319 4.300 0.129 34.522 o
-2 12 3 3.220 3.106 0.169 43.849 o
-2 12 4 0.236 0.418 0.179 85.644 o
-2 12 5 3.455 3.404 0.249 27.109 o
-2 12 6 0.635 0.637 0.100 245.782 o
-2 12 7 0.880 0.936 0.119 162.938 o
-2 12 8 0.228 0.279 0.169 96.226 o
-2 12 9 0.298 0.289 0.119 190.525 o
-2 13 -1 0.354 0.269 0.119 189.678 o
-2 13 0 1.304 1.324 0.119 137.770 o
-2 13 1 0.419 0.408 0.109 220.607 o
-2 13 2 0.020 0.030 0.109 231.444 o
-2 13 3 0.083 0.060 0.189 77.545 o
-2 13 4 2.122 2.240 0.129 84.791 o
-2 13 5 0.003 0.100 0.159 109.392 o
-2 13 6 0.003 0.109 0.169 96.900 o
-2 13 7 0.098 0.219 0.119 193.619 o
-2 13 8 0.968 0.985 0.159 96.994 o
-2 14 -1 1.670 1.762 0.129 104.151 o
-2 14 0 0.130 0.189 0.139 142.343 o
-2 14 1 0.400 0.557 0.119 185.393 o
-2 14 2 1.583 1.652 0.109 133.324 o
-2 14 3 1.194 1.254 0.119 143.689 o
-2 14 4 1.217 1.115 0.100 188.828 o
-2 14 5 0.019 0.060 0.159 109.394 o
-2 14 6 0.041 0.139 0.139 142.766 o
-2 15 -1 0.156 0.020 0.080 434.780 o
-2 15 0 0.486 0.448 0.129 158.471 o
-2 15 1 0.215 0.348 0.119 191.417 o
-2 15 2 0.451 0.448 0.129 159.146 o
-2 15 3 0.601 0.607 0.119 178.901 o
-2 15 4 0.021 0.050 0.149 124.466 o
-2 15 5 0.243 0.309 0.109 226.937 o
-2 16 -1 0.321 0.478 0.109 222.622 o
-2 16 0 0.040 0.139 0.169 96.854 o
-2 16 1 0.271 0.299 0.139 140.954 o
-2 16 2 0.181 0.189 0.139 142.056 o
-1 0 1 630.518 668.626 4.469 0.002 o
-1 0 3 6.351 7.177 0.199 14.614 o
-1 0 5 109.977 112.689 0.836 0.065 o
-1 0 7 2.223 2.120 0.149 71.725 o
-1 0 9 2.970 2.907 0.189 42.349 o
-1 0 11 0.006 0.159 0.189 77.563 o
-1 0 13 0.172 0.319 0.169 96.356 o
-1 1 0 795.161 684.344 28.647 0.001 o
-1 1 1 346.157 324.757 6.142 0.006 o
-1 1 2 316.476 312.952 6.609 0.007 o
-1 1 3 15.302 15.906 0.269 3.101 o
-1 1 4 61.341 67.319 0.567 0.198 o
-1 1 5 24.861 23.611 0.299 1.300 o
-1 1 6 61.679 60.410 0.906 0.203 o
-1 1 7 42.546 41.906 3.374 0.158 o
-1 1 8 7.782 7.804 0.149 12.070 o
-1 1 9 0.426 0.577 0.129 158.386 o
-1 1 10 0.703 0.657 0.109 203.960 o
-1 1 11 1.510 1.493 0.119 126.084 o
-1 1 12 0.731 0.727 0.119 172.469 o
-1 1 13 0.061 0.050 0.159 109.362 o
-1 2 0 82.609 78.377 5.644 0.051 o
-1 2 1 2.762 3.265 0.090 74.195 o
-1 2 2 49.569 49.342 1.443 0.265 o
-1 2 3 3.086 2.827 0.199 39.407 o
-1 2 4 76.259 85.066 4.340 0.069 o
-1 2 5 9.532 9.486 0.149 8.353 o
-1 2 6 18.558 18.932 0.428 2.014 o
-1 2 7 4.429 4.101 0.418 11.629 o
-1 2 8 2.658 2.598 0.209 41.105 o
-1 2 9 8.397 8.262 0.617 4.479 o
-1 2 10 1.125 1.135 0.179 76.116 o
-1 2 11 0.669 0.747 0.109 203.459 o
-1 2 12 0.092 0.149 0.169 96.775 o
-1 3 0 333.543 310.613 5.733 0.007 o
-1 3 1 225.010 230.065 4.360 0.014 o
-1 3 2 64.587 73.669 2.309 0.132 o
-1 3 3 172.647 188.737 3.514 0.023 o
-1 3 4 32.075 36.342 0.388 0.695 o
-1 3 5 47.343 49.600 0.816 0.323 o
-1 3 6 30.199 27.284 1.085 0.677 o
-1 3 7 6.329 6.022 0.557 6.259 o
-1 3 8 9.893 8.670 0.368 6.257 o
-1 3 9 0.004 0.189 0.109 231.196 o
-1 3 10 0.411 0.448 0.109 220.202 o
-1 3 11 0.225 0.169 0.139 141.837 o
-1 3 12 0.110 0.199 0.129 165.077 o
-1 4 0 0.606 0.398 0.060 609.449 o
-1 4 1 4.645 4.808 0.090 33.193 o
-1 4 2 39.942 44.793 1.374 0.356 o
-1 4 3 5.583 6.699 0.109 20.810 o
-1 4 4 17.799 14.861 0.338 2.563 o
-1 4 5 4.956 4.977 0.090 30.063 o
-1 4 6 0.205 0.100 0.149 123.935 o
-1 4 7 2.815 2.936 0.488 10.441 o
-1 4 8 19.738 19.032 2.548 0.356 o
-1 4 9 4.470 4.489 0.328 15.726 o
-1 4 10 6.544 6.341 0.179 15.799 o
-1 4 11 0.323 0.259 0.129 162.715 o
-1 4 12 0.004 0.129 0.149 124.444 o
-1 5 0 3.950 2.797 0.119 48.028 o
-1 5 1 0.006 0.090 0.090 345.620 o
-1 5 2 99.989 104.934 3.345 0.060 o
-1 5 3 68.164 72.674 1.453 0.148 o
-1 5 4 51.751 53.602 0.508 0.288 o
-1 5 5 0.155 0.149 0.100 277.843 o
-1 5 6 0.341 0.289 0.090 331.026 o
-1 5 7 12.333 11.875 0.737 2.642 o
-1 5 8 0.418 2.339 1.732 0.924 o
-1 5 9 0.394 0.249 0.139 139.958 o
-1 5 10 0.108 0.100 0.159 109.247 o
-1 5 11 0.040 0.229 0.149 124.283 o
-1 5 12 0.027 0.090 0.179 86.426 o
-1 6 0 46.713 43.250 2.289 0.225 o
-1 6 1 38.162 37.088 1.254 0.429 o
-1 6 2 16.997 14.742 0.388 2.633 o
-1 6 3 0.007 0.956 0.657 6.425 o
-1 6 4 0.239 0.488 0.090 331.159 o
-1 6 5 12.585 11.795 0.229 4.852 o
-1 6 6 9.746 10.273 0.647 3.673 o
-1 6 7 4.122 4.101 0.139 35.869 o
-1 6 8 6.553 6.769 0.219 14.006 o
-1 6 9 9.964 10.024 0.279 6.626 o
-1 6 10 1.494 1.493 0.129 113.841 o
-1 6 11 0.329 0.458 0.129 161.178 o
-1 6 12 0.307 0.319 0.139 140.512 o
-1 7 0 4.606 4.420 0.239 21.726 o
-1 7 1 0.302 0.119 0.119 191.828 o
-1 7 2 8.595 9.028 0.269 8.319 o
-1 7 3 25.246 26.348 0.587 1.071 o
-1 7 4 1.910 1.752 0.100 127.791 o
-1 7 5 0.013 0.119 0.139 142.844 o
-1 7 6 2.932 2.897 0.100 70.998 o
-1 7 7 6.183 6.291 0.259 13.921 o
-1 7 8 1.061 0.956 0.090 238.674 o
-1 7 9 0.001 0.000 0.040 1750.560 o
-1 7 10 0.021 0.070 0.189 77.577 o
-1 7 11 0.905 0.876 0.189 72.062 o
-1 8 0 4.446 3.374 0.338 16.157 o
-1 8 1 62.469 61.724 3.275 0.116 o
-1 8 2 7.459 7.087 0.259 11.052 o
-1 8 3 2.670 2.140 0.090 94.701 o
-1 8 4 5.790 5.505 0.129 21.725 o
-1 8 5 14.111 15.369 0.528 2.773 o
-1 8 6 1.119 0.985 0.100 200.237 o
-1 8 7 8.006 7.913 0.229 10.275 o
-1 8 8 2.442 2.648 0.269 29.585 o
-1 8 9 0.929 1.145 0.219 54.010 o
-1 8 10 0.398 0.478 0.119 186.454 o
-1 8 11 0.449 0.657 0.119 182.722 o
-1 9 0 25.159 24.706 1.105 0.826 o
-1 9 1 0.942 0.916 0.149 109.812 o
-1 9 2 0.168 0.189 0.109 229.470 o
-1 9 3 3.489 3.335 0.100 55.121 o
-1 9 4 0.027 0.169 0.169 96.853 o
-1 9 5 3.278 3.145 0.139 50.271 o
-1 9 6 8.089 7.366 0.299 9.252 o
-1 9 7 0.477 0.468 0.090 315.600 o
-1 9 8 1.450 1.404 0.100 163.726 o
-1 9 9 0.048 0.010 0.080 437.347 o
-1 9 10 0.917 1.005 0.119 160.125 o
-1 9 11 0.126 0.189 0.189 77.427 o
-1 10 0 26.226 27.065 1.702 0.523 o
-1 10 1 3.676 3.494 0.100 50.799 o
-1 10 2 14.450 14.214 0.547 2.757 o
-1 10 3 0.085 0.239 0.149 124.131 o
-1 10 4 4.032 4.648 0.149 33.140 o
-1 10 5 1.869 1.851 0.229 43.165 o
-1 10 6 7.458 7.366 0.398 7.990 o
-1 10 7 0.026 0.199 0.139 142.727 o
-1 10 8 0.166 0.229 0.109 229.194 o
-1 10 9 0.000 0.040 0.119 194.498 o
-1 10 10 0.006 0.179 0.129 165.596 o
-1 11 0 0.238 0.219 0.129 163.932 o
-1 11 1 2.615 2.668 0.109 77.724 o
-1 11 2 12.359 12.751 0.398 4.008 o
-1 11 3 0.017 0.050 0.179 86.440 o
-1 11 4 12.969 12.114 0.747 2.505 o
-1 11 5 2.060 1.891 0.109 107.870 o
-1 11 6 1.021 0.866 0.090 246.914 o
-1 11 7 2.020 2.041 0.100 115.780 o
-1 11 8 0.002 0.020 0.070 571.587 o
-1 11 9 0.128 0.219 0.119 193.347 o
-1 12 0 0.362 0.348 0.090 327.948 o
-1 12 1 7.110 7.147 0.119 14.773 o
-1 12 2 0.039 0.020 0.090 345.633 o
-1 12 3 0.015 0.080 0.189 77.577 o
-1 12 4 0.166 0.080 0.149 124.125 o
-1 12 5 3.029 2.946 0.119 61.535 o
-1 12 6 0.049 0.109 0.169 96.861 o
-1 12 7 0.026 0.100 0.159 109.373 o
-1 12 8 0.181 0.189 0.119 192.947 o
-1 12 9 0.336 0.408 0.100 268.075 o
-1 13 0 0.552 0.428 0.090 311.192 o
-1 13 1 3.583 3.424 0.219 30.630 o
-1 13 2 0.000 0.060 0.129 165.720 o
-1 13 3 14.175 13.836 0.697 2.388 o
-1 13 4 0.064 0.109 0.179 86.390 o
-1 13 5 3.207 2.936 0.129 55.517 o
-1 13 6 0.352 0.408 0.129 161.202 o
-1 13 7 0.011 0.109 0.159 109.382 o
-1 13 8 0.009 0.090 0.149 124.460 o
-1 14 0 0.097 0.199 0.129 165.153 o
-1 14 1 0.711 0.627 0.090 288.428 o
-1 14 2 0.262 0.358 0.100 271.965 o
-1 14 3 0.114 0.319 0.129 164.613 o
-1 14 4 0.327 0.348 0.129 162.033 o
-1 14 5 0.167 0.199 0.159 108.946 o
-1 14 6 0.002 0.149 0.169 96.886 o
-1 14 7 0.001 0.100 0.159 109.393 o
-1 15 0 0.011 0.129 0.159 109.373 o
-1 15 1 0.128 0.109 0.169 96.745 o
-1 15 2 3.874 4.111 0.109 42.386 o
-1 15 3 0.009 0.040 0.159 109.404 o
-1 15 4 2.931 3.016 0.139 56.191 o
-1 15 5 0.001 0.060 0.179 86.444 o
-1 16 0 0.717 0.677 0.100 239.198 o
-1 16 1 0.005 0.070 0.159 109.400 o
-1 16 2 0.633 0.597 0.109 208.504 o
-1 16 3 0.015 0.179 0.129 165.569 o
0 0 2 977.271 932.605 6.042 0.001 o
0 0 4 16.682 16.076 0.448 2.456 o
0 0 6 1.630 1.931 0.139 93.552 o
0 0 8 1.534 1.513 0.159 83.234 o
0 0 10 3.835 3.663 0.169 35.818 o
0 0 12 3.213 3.305 0.189 38.669 o
0 1 1 40.762 48.018 1.513 0.320 o
0 1 2 419.531 422.575 10.571 0.004 o
0 1 3 7.216 6.002 0.299 11.192 o
0 1 4 1.161 1.463 0.070 269.357 o
0 1 5 32.667 31.932 0.468 0.727 o
0 1 6 19.985 19.559 0.309 1.923 o
0 1 7 6.567 6.390 0.388 9.386 o
0 1 8 0.836 0.886 0.119 165.624 o
0 1 9 0.698 0.796 0.269 37.473 o
0 1 10 3.884 3.713 0.119 43.098 o
0 1 11 0.535 0.597 0.219 56.621 o
0 1 12 0.096 0.169 0.169 96.749 o
0 2 0 1.562 2.110 0.060 198.430 o
0 2 1 2012.490 1943.960 88.242 0.000 o
0 2 2 38.188 40.164 1.822 0.327 o
0 2 3 0.003 0.060 0.080 437.528 o
0 2 4 55.005 56.319 1.603 0.212 o
0 2 5 2.956 2.777 0.100 71.858 o
0 2 6 0.111 0.050 0.149 124.327 o
0 2 7 4.118 4.270 0.398 12.729 o
0 2 8 7.278 7.097 0.916 2.729 o
0 2 9 0.137 0.199 0.109 229.853 o
0 2 10 0.946 0.926 0.119 160.545 o
0 2 11 3.289 3.404 0.229 30.729 o
0 2 12 0.005 0.050 0.159 109.404 o
0 3 1 312.165 307.487 5.096 0.008 o
0 3 2 7.926 11.178 0.468 5.587 o
0 3 3 248.558 249.287 12.502 0.008 o
0 3 4 5.061 6.142 0.448 9.213 o
0 3 5 0.018 0.109 0.100 279.862 o
0 3 6 2.392 2.140 0.189 51.397 o
0 3 7 0.481 0.528 0.109 216.273 o
0 3 8 0.091 0.279 0.179 86.230 o
0 3 9 9.530 9.476 0.627 3.948 o
0 3 10 0.024 0.159 0.129 165.572 o
0 3 11 1.312 1.384 0.119 136.185 o
0 3 12 0.086 0.189 0.159 109.196 o
0 4 0 333.375 322.110 1.742 0.007 o
0 4 1 17.501 17.668 0.488 2.147 o
0 4 2 28.367 25.482 1.135 0.719 o
0 4 3 77.737 74.754 3.663 0.083 o
0 4 4 1.187 0.567 0.179 78.408 o
0 4 5 14.653 14.682 0.906 1.783 o
0 4 6 2.234 2.160 0.149 71.158 o
0 4 7 13.262 12.363 1.334 1.179 o
0 4 8 1.097 0.995 0.478 11.954 o
0 4 9 7.047 6.838 0.368 9.181 o
0 4 10 0.287 0.259 0.119 190.978 o
0 4 11 0.059 0.070 0.139 142.803 o
0 4 12 0.275 0.309 0.139 140.868 o
0 5 1 30.456 32.330 0.896 0.675 o
0 5 2 226.398 230.912 4.818 0.014 o
0 5 3 13.738 14.692 0.906 1.854 o
0 5 4 46.745 49.232 1.712 0.260 o
0 5 5 4.316 4.808 0.368 13.582 o
0 5 6 4.120 4.509 0.159 31.833 o
0 5 7 2.451 2.628 0.149 63.288 o
0 5 8 10.286 10.700 1.055 1.869 o
0 5 9 0.062 0.030 0.129 165.643 o
0 5 10 4.000 4.211 0.149 35.131 o
0 5 11 0.024 0.119 0.169 96.880 o
0 5 12 0.003 0.109 0.159 109.388 o
0 6 0 45.741 43.459 0.806 0.366 o
0 6 1 0.038 0.159 0.070 569.138 o
0 6 2 3.171 3.285 0.109 58.759 o
0 6 3 1.113 1.185 0.090 222.950 o
0 6 4 36.874 37.138 1.264 0.442 o
0 6 5 3.792 3.932 0.239 25.818 o
0 6 6 0.855 0.876 0.109 190.993 o
0 6 7 1.271 1.274 0.129 124.553 o
0 6 8 9.450 9.406 0.358 6.408 o
0 6 9 0.133 0.020 0.080 435.492 o
0 6 10 0.294 0.348 0.189 76.872 o
0 6 11 0.069 0.269 0.179 86.278 o
0 6 12 0.100 0.070 0.199 69.974 o
0 7 1 20.488 23.163 0.458 1.564 o
0 7 2 25.825 26.030 0.667 1.013 o
0 7 3 42.254 43.270 1.632 0.313 o
0 7 4 4.576 4.788 0.448 10.108 o
0 7 5 13.282 13.229 0.587 2.930 o
0 7 6 21.784 22.904 1.304 0.821 o
0 7 7 8.536 8.521 0.498 5.587 o
0 7 8 1.205 1.224 0.139 113.548 o
0 7 9 3.978 4.011 0.159 34.767 o
0 7 10 0.315 0.179 0.149 123.112 o
0 7 11 0.101 0.269 0.119 193.363 o
0 8 0 25.034 25.731 0.518 1.131 o
0 8 1 24.172 22.237 0.328 1.386 o
0 8 2 1.109 1.165 0.080 259.562 o
0 8 3 2.032 2.309 0.090 118.245 o
0 8 4 7.582 7.605 0.438 7.135 o
0 8 5 0.788 0.836 0.119 168.383 o
0 8 6 1.608 1.603 0.129 108.520 o
0 8 7 2.734 2.698 0.239 33.668 o
0 8 8 0.000 0.030 0.129 165.730 o
0 8 9 0.220 0.209 0.129 164.165 o
0 8 10 0.227 0.398 0.279 35.599 o
0 8 11 0.377 0.498 0.119 186.708 o
0 9 1 5.558 5.475 0.119 23.334 o
0 9 2 1.195 1.523 0.090 200.424 o
0 9 3 0.020 0.119 0.149 124.430 o
0 9 4 3.910 4.230 0.169 33.097 o
0 9 5 21.624 22.327 1.344 0.807 o
0 9 6 5.275 5.116 0.129 25.212 o
0 9 7 8.049 8.172 0.159 11.130 o
0 9 8 1.929 1.911 0.119 103.070 o
0 9 9 0.029 0.030 0.109 231.421 o
0 9 10 0.046 0.070 0.199 70.005 o
0 10 0 26.054 25.960 0.597 1.038 o
0 10 1 6.020 6.450 0.309 12.322 o
0 10 2 8.517 7.973 0.219 9.713 o
0 10 3 5.428 5.733 0.289 14.764 o
0 10 4 0.371 0.279 0.109 224.066 o
0 10 5 4.925 4.648 0.129 28.704 o
0 10 6 0.315 0.219 0.149 122.975 o
0 10 7 0.102 0.040 0.149 124.358 o
0 10 8 0.005 0.080 0.179 86.439 o
0 10 9 0.048 0.040 0.159 109.380 o
0 10 10 0.580 0.667 0.129 154.049 o
0 11 1 1.392 1.294 0.129 120.314 o
0 11 2 0.861 0.866 0.109 190.916 o
0 11 3 1.231 1.035 0.109 166.787 o
0 11 4 3.810 3.962 0.100 45.559 o
0 11 5 0.791 0.876 0.109 194.279 o
0 11 6 6.330 6.609 0.328 11.141 o
0 11 7 0.859 0.936 0.109 189.214 o
0 11 8 0.139 0.219 0.149 123.962 o
0 11 9 0.012 0.189 0.129 165.563 o
0 12 0 1.183 1.374 0.169 81.734 o
0 12 1 6.363 5.933 0.229 15.017 o
0 12 2 1.280 0.995 0.080 248.916 o
0 12 3 3.747 3.335 0.100 50.926 o
0 12 4 6.122 5.982 0.109 20.063 o
0 12 5 0.828 0.617 0.090 277.827 o
0 12 6 0.048 0.139 0.189 77.541 o
0 12 7 0.089 0.249 0.129 165.051 o
0 12 8 0.614 0.667 0.129 153.246 o
0 13 1 0.102 0.040 0.139 142.735 o
0 13 2 4.123 3.932 0.100 41.853 o
0 13 3 0.021 0.100 0.149 124.441 o
0 13 4 0.353 0.219 0.109 225.368 o
0 13 5 0.616 0.677 0.100 245.752 o
0 13 6 0.373 0.338 0.129 161.417 o
0 13 7 0.018 0.050 0.169 96.907 o
0 13 8 0.007 0.040 0.149 124.478 o
0 14 0 0.232 0.169 0.189 77.257 o
0 14 1 0.506 0.617 0.239 47.781 o
0 14 2 1.158 1.155 0.090 220.179 o
0 14 3 2.885 2.917 0.100 71.899 o
0 14 4 1.625 1.413 0.179 68.734 o
0 14 5 0.493 0.458 0.109 217.110 o
0 14 6 0.013 0.030 0.129 165.721 o
0 14 7 0.353 0.309 0.119 189.314 o
0 15 1 0.841 0.866 0.179 80.273 o
0 15 2 0.000 0.199 0.129 165.584 o
0 15 3 0.949 1.025 0.100 210.888 o
0 15 4 0.039 0.159 0.129 165.523 o
0 15 5 0.073 0.100 0.139 142.733 o
0 16 0 0.542 0.398 0.189 75.816 o
0 16 1 0.107 0.159 0.169 96.737 o
0 16 2 0.754 0.756 0.129 148.446 o
0 16 3 0.424 0.398 0.179 84.887 o
1 0 1 0.032 0.189 0.060 772.720 o
1 0 3 190.102 192.768 1.354 0.022 o
1 0 5 0.423 0.717 0.119 182.611 o
1 0 7 5.307 5.684 0.189 20.289 o
1 0 9 2.154 2.170 0.159 67.166 o
1 0 11 2.917 3.235 0.179 43.791 o
1 1 1 748.374 744.764 28.209 0.001 o
1 1 2 55.924 57.295 3.822 0.109 o
1 1 3 0.000 0.030 0.090 345.774 o
1 1 4 40.720 38.293 0.707 0.466 o
1 1 5 62.812 61.834 0.926 0.195 o
1 1 6 31.639 31.106 0.995 0.634 o
1 1 7 3.958 3.862 0.129 39.935 o
1 1 8 4.352 4.290 0.368 13.887 o
1 1 9 0.027 0.080 0.199 70.010 o
1 1 10 1.237 1.165 0.149 101.554 o
1 1 11 0.448 0.468 0.119 185.328 o
1 1 12 0.439 0.547 0.129 158.415 o
1 2 1 197.615 181.709 6.201 0.017 o
1 2 2 236.908 233.480 8.361 0.011 o
1 2 3 221.585 234.664 10.093 0.010 o
1 2 4 49.782 51.094 1.662 0.244 o
1 2 5 10.451 12.442 0.209 5.949 o
1 2 6 2.518 2.857 0.338 20.078 o
1 2 7 1.237 1.095 0.139 114.381 o
1 2 8 0.008 0.010 0.090 345.777 o
1 2 9 0.128 0.070 0.189 77.499 o
1 2 10 2.812 2.707 0.129 64.339 o
1 2 11 0.002 0.259 0.209 63.474 o
1 2 12 0.460 0.428 0.119 185.520 o
1 3 1 2.975 2.867 0.139 56.656 o
1 3 2 143.062 139.365 0.796 0.040 o
1 3 3 5.424 5.942 0.149 21.429 o
1 3 4 28.079 27.463 0.956 0.777 o
1 3 5 10.369 9.297 0.348 5.976 o
1 3 6 7.247 6.709 0.577 5.503 o
1 3 7 10.068 9.815 0.677 3.472 o
1 3 8 2.831 2.956 0.478 10.818 o
1 3 9 4.121 4.161 0.289 19.569 o
1 3 10 0.306 0.348 0.169 95.743 o
1 3 11 0.636 0.756 0.119 175.282 o
1 3 12 0.369 0.448 0.119 187.475 o
1 4 1 53.381 53.781 1.125 0.251 o
1 4 2 290.165 282.005 3.345 0.009 o
1 4 3 107.491 109.862 2.707 0.058 o
1 4 4 100.225 102.605 2.608 0.067 o
1 4 5 8.128 8.570 0.617 4.511 o
1 4 6 0.366 0.129 0.159 108.209 o
1 4 7 0.172 0.040 0.119 193.742 o
1 4 8 1.802 1.832 0.229 43.604 o
1 4 9 0.659 0.647 0.109 206.202 o
1 4 10 0.006 0.100 0.179 86.435 o
1 4 11 0.159 0.408 0.269 38.315 o
1 4 12 0.045 0.119 0.169 96.860 o
1 5 1 112.562 111.205 1.364 0.062 o
1 5 2 17.433 17.718 0.657 1.871 o
1 5 3 1.261 1.065 0.090 214.818 o
1 5 4 2.287 2.698 0.129 75.309 o
1 5 5 5.106 5.176 0.338 13.565 o
1 5 6 0.001 0.100 0.149 124.462 o
1 5 7 2.414 2.648 0.448 12.507 o
1 5 8 3.475 3.484 0.119 49.849 o
1 5 9 2.893 3.116 0.100 69.321 o
1 5 10 0.980 1.095 0.119 155.746 o
1 5 11 0.010 0.080 0.189 77.579 o
1 6 1 34.194 36.680 1.772 0.378 o
1 6 2 54.814 52.706 2.110 0.192 o
1 6 3 126.003 122.722 4.420 0.038 o
1 6 4 25.054 24.228 2.001 0.455 o
1 6 5 5.315 4.867 0.289 15.889 o
1 6 6 7.224 7.426 0.577 5.386 o
1 6 7 2.934 3.145 0.328 19.994 o
1 6 8 0.958 0.956 0.109 183.477 o
1 6 9 0.010 0.219 0.129 165.518 o
1 6 10 0.038 0.269 0.169 96.764 o
1 6 11 0.075 0.020 0.090 345.316 o
1 7 1 45.644 43.150 2.309 0.227 o
1 7 2 6.621 5.903 0.438 8.379 o
1 7 3 0.434 0.388 0.100 264.117 o
1 7 4 0.044 0.209 0.109 230.834 o
1 7 5 14.889 15.021 0.428 2.933 o
1 7 6 0.508 0.557 0.149 119.445 o
1 7 7 0.196 0.249 0.149 123.619 o
1 7 8 1.708 1.573 0.119 116.937 o
1 7 9 0.632 0.677 0.159 103.556 o
1 7 10 0.046 0.090 0.229 52.934 o
1 7 11 0.010 0.100 0.169 96.898 o
1 8 1 40.840 40.403 2.140 0.271 o
1 8 2 17.993 19.599 1.603 0.741 o
1 8 3 11.265 10.611 0.796 2.639 o
1 8 4 7.601 7.177 0.358 8.704 o
1 8 5 10.871 10.651 0.508 4.226 o
1 8 6 1.067 1.194 0.129 132.429 o
1 8 7 4.987 4.768 0.328 14.565 o
1 8 8 0.179 0.179 0.129 164.654 o
1 8 9 0.000 0.030 0.109 231.472 o
1 8 10 0.324 0.388 0.119 189.097 o
1 9 1 0.283 0.149 0.159 108.578 o
1 9 2 7.444 6.848 0.438 7.471 o
1 9 3 0.187 0.070 0.199 69.891 o
1 9 4 11.726 12.204 0.428 4.163 o
1 9 5 0.308 0.149 0.169 96.167 o
1 9 6 6.882 6.749 0.139 15.468 o
1 9 7 0.040 0.109 0.159 109.351 o
1 9 8 0.001 0.100 0.169 96.903 o
1 9 9 0.127 0.139 0.169 96.718 o
1 9 10 0.002 0.010 0.050 1120.330 o
1 10 1 0.718 0.717 0.109 201.824 o
1 10 2 1.367 1.433 0.189 65.492 o
1 10 3 0.038 0.209 0.139 142.674 o
1 10 4 0.779 0.826 0.129 146.772 o
1 10 5 0.405 0.438 0.109 220.580 o
1 10 6 4.818 4.788 0.199 23.373 o
1 10 7 0.121 0.348 0.229 52.813 o
1 10 8 0.650 0.697 0.189 74.433 o
1 10 9 0.257 0.259 0.119 191.456 o
1 11 1 7.849 7.774 0.528 5.689 o
1 11 2 0.206 0.448 0.129 162.996 o
1 11 3 0.465 0.577 0.100 257.605 o
1 11 4 0.197 0.179 0.119 192.821 o
1 11 5 5.157 5.425 0.139 24.426 o
1 11 6 0.009 0.169 0.129 165.602 o
1 11 7 0.408 0.368 0.119 187.509 o
1 11 8 1.074 1.224 0.149 104.268 o
1 11 9 0.000 0.100 0.169 96.904 o
1 12 1 0.310 0.378 0.109 224.392 o
1 12 2 1.426 1.523 0.109 144.061 o
1 12 3 1.367 1.304 0.149 97.400 o
1 12 4 0.920 1.035 0.100 212.611 o
1 12 5 0.269 0.299 0.199 69.555 o
1 12 6 0.005 0.080 0.169 96.906 o
1 12 7 1.038 1.244 0.119 150.317 o
1 12 8 0.240 0.149 0.179 86.044 o
1 13 1 0.360 0.428 0.109 222.198 o
1 13 2 0.094 0.139 0.169 96.778 o
1 13 3 0.014 0.050 0.169 96.909 o
1 13 4 0.429 0.518 0.119 185.173 o
1 13 5 0.040 0.080 0.219 57.858 o
1 13 6 0.087 0.199 0.159 109.182 o
1 13 7 0.748 0.816 0.149 114.079 o
1 14 1 0.069 0.090 0.179 86.394 o
1 14 2 1.457 1.443 0.109 144.484 o
1 14 3 0.886 0.956 0.119 162.308 o
1 14 4 0.544 0.597 0.169 93.396 o
1 14 5 0.003 0.109 0.179 86.434 o
1 14 6 0.154 0.358 0.249 44.693 o
1 15 1 0.108 0.219 0.109 230.096 o
1 15 2 0.190 0.229 0.129 164.351 o
1 15 3 0.000 0.060 0.179 86.444 o
1 15 4 0.053 0.119 0.169 96.852 o
1 15 5 0.115 0.090 0.179 86.343 o
1 16 1 0.272 0.139 0.189 77.203 o
1 16 2 0.030 0.080 0.209 63.502 o
1 16 3 0.396 0.498 0.209 62.607 o
2 0 2 8.637 12.074 0.279 6.849 o
2 0 4 90.973 93.726 1.135 0.092 o
2 0 6 87.632 92.084 1.364 0.096 o
2 0 8 4.355 4.788 0.219 23.674 o
2 0 10 0.214 0.000 0.109 230.137 o
2 0 12 0.005 0.179 0.179 86.411 o
2 1 2 30.180 32.131 2.548 0.285 o
2 1 3 13.190 12.383 0.538 3.226 o
2 1 4 69.537 70.663 2.698 0.116 o
2 1 5 9.451 8.740 0.139 8.953 o
2 1 6 0.655 0.677 0.100 243.218 o
2 1 7 0.376 0.368 0.119 188.220 o
2 1 8 1.381 1.513 0.129 117.116 o
2 1 9 0.492 0.756 0.229 51.808 o
2 1 10 0.072 0.149 0.139 142.664 o
2 1 11 0.560 0.488 0.129 156.542 o
2 1 12 0.151 0.239 0.189 77.347 o
2 2 2 97.355 95.518 4.300 0.055 o
2 2 3 2.565 2.150 0.080 104.734 o
2 2 4 7.979 7.804 0.508 5.875 o
2 2 5 80.013 83.374 4.489 0.065 o
2 2 6 0.001 0.159 0.159 109.368 o
2 2 7 18.744 19.788 1.642 0.703 o
2 2 8 0.435 0.538 0.139 137.571 o
2 2 9 0.011 1.543 1.025 2.638 o
2 2 10 0.186 0.269 0.169 96.392 o
2 2 11 0.040 0.139 0.199 69.990 o
2 3 2 1.400 1.632 0.080 200.930 o
2 3 3 120.034 126.136 7.107 0.027 o
2 3 4 0.079 0.109 0.149 124.332 o
2 3 5 14.832 15.190 0.876 1.811 o
2 3 6 2.193 2.001 0.109 100.929 o
2 3 7 5.943 6.619 0.229 15.196 o
2 3 8 2.036 1.931 0.109 108.019 o
2 3 9 2.284 2.110 0.567 8.189 o
2 3 10 0.634 0.597 0.119 177.988 o
2 3 11 0.001 0.100 0.189 77.579 o
2 4 2 4.332 4.698 0.169 28.749 o
2 4 3 53.173 48.107 0.617 0.294 o
2 4 4 9.084 8.839 0.328 7.203 o
2 4 5 0.041 0.129 0.149 124.390 o
2 4 6 10.992 11.089 0.856 2.416 o
2 4 7 0.010 0.139 0.169 96.884 o
2 4 8 0.568 0.597 0.109 211.337 o
2 4 9 0.899 0.856 0.139 125.581 o
2 4 10 0.001 0.020 0.109 231.476 o
2 4 11 0.003 0.119 0.179 86.431 o
2 5 2 52.658 53.005 2.508 0.175 o
2 5 3 5.199 5.415 0.109 25.917 o
2 5 4 35.182 36.183 1.911 0.348 o
2 5 5 0.582 4.738 3.434 0.235 o
2 5 6 1.101 1.194 0.119 148.777 o
2 5 7 2.041 2.250 0.448 12.855 o
2 5 8 6.872 6.988 0.249 12.315 o
2 5 9 0.579 0.557 0.090 303.444 o
2 5 10 0.726 0.697 0.100 237.940 o
2 5 11 0.016 0.109 0.159 109.377 o
2 6 2 59.889 53.204 0.657 0.235 o
2 6 3 0.019 0.090 0.149 124.450 o
2 6 4 0.857 0.627 0.100 231.421 o
2 6 5 0.039 0.030 0.129 165.690 o
2 6 6 2.773 3.195 0.269 27.401 o
2 6 7 0.016 0.179 0.149 124.390 o
2 6 8 0.089 0.179 0.149 124.214 o
2 6 9 0.084 0.199 0.139 142.527 o
2 6 10 0.246 0.319 0.129 163.302 o
2 6 11 0.157 0.189 0.169 96.593 o
2 7 2 2.225 1.941 0.189 54.096 o
2 7 3 22.122 22.167 0.776 1.217 o
2 7 4 6.863 7.137 0.149 14.776 o
2 7 5 0.742 0.786 0.199 66.724 o
2 7 6 0.001 0.129 0.189 77.573 o
2 7 7 2.687 2.827 0.199 42.559 o
2 7 8 0.434 0.458 0.109 219.243 o
2 7 9 1.231 1.543 0.159 88.204 o
2 7 10 0.175 0.219 0.139 142.000 o
2 8 2 1.164 1.175 0.229 48.620 o
2 8 3 0.651 0.557 0.109 208.597 o
2 8 4 1.557 1.294 0.119 128.158 o
2 8 5 5.697 6.161 0.309 13.066 o
2 8 6 2.978 2.817 0.119 63.740 o
2 8 7 1.409 1.523 0.109 144.880 o
2 8 8 0.004 0.129 0.189 77.571 o
2 8 9 0.064 0.189 0.179 86.344 o
2 8 10 0.389 0.408 0.129 160.602 o
2 9 2 6.168 5.942 0.139 18.947 o
2 9 3 1.008 1.185 0.119 152.814 o
2 9 4 0.390 0.518 0.119 186.153 o
2 9 5 1.918 2.021 0.109 110.853 o
2 9 6 0.068 0.109 0.159 109.312 o
2 9 7 0.046 0.129 0.179 86.397 o
2 9 8 0.053 0.239 0.159 109.214 o
2 9 9 0.097 0.090 0.189 77.521 o
2 10 2 0.766 0.856 0.119 168.857 o
2 10 3 0.941 1.005 0.129 139.354 o
2 10 4 5.072 4.907 0.129 26.974 o
2 10 5 2.023 1.891 0.119 100.295 o
2 10 6 3.443 3.564 0.129 47.635 o
2 10 7 0.375 0.299 0.129 161.695 o
2 10 8 0.192 0.289 0.139 141.647 o
2 10 9 0.377 0.438 0.129 160.551 o
2 11 2 0.902 0.747 0.100 224.156 o
2 11 3 0.126 0.169 0.129 165.067 o
2 11 4 1.319 1.453 0.159 87.459 o
2 11 5 0.072 0.100 0.169 96.840 o
2 11 6 0.072 0.179 0.179 86.341 o
2 11 7 0.358 0.378 0.129 161.341 o
2 11 8 0.005 0.020 0.109 231.472 o
2 12 2 4.931 5.116 0.129 27.191 o
2 12 3 3.866 3.982 0.129 40.264 o
2 12 4 0.155 0.239 0.119 192.954 o
2 12 5 1.909 2.051 0.199 52.632 o
2 12 6 0.181 0.209 0.179 86.115 o
2 12 7 0.329 0.358 0.129 161.938 o
2 12 8 0.156 0.279 0.169 96.471 o
2 13 2 0.048 0.100 0.159 109.347 o
2 13 3 0.119 0.149 0.159 109.164 o
2 13 4 0.616 0.747 0.119 176.144 o
2 13 5 0.057 0.040 0.159 109.371 o
2 13 6 0.181 0.259 0.129 164.297 o
2 13 7 0.001 0.040 0.139 142.898 o
2 14 2 2.072 2.190 0.129 86.714 o
2 14 3 1.663 1.822 0.129 103.461 o
2 14 4 0.610 0.707 0.129 152.844 o
2 14 5 0.073 0.040 0.149 124.411 o
2 15 2 0.119 0.159 0.149 124.150 o
2 15 3 0.299 0.448 0.109 223.711 o
2 15 4 0.000 0.050 0.169 96.913 o
3 0 3 12.541 13.109 0.368 4.020 o
3 0 5 31.189 32.639 0.866 0.663 o
3 0 7 0.370 0.289 0.199 69.320 o
3 0 9 0.561 0.418 0.179 84.086 o
3 0 11 0.000 0.050 0.199 70.021 o
3 1 3 0.364 0.438 0.090 324.884 o
3 1 4 12.882 13.707 0.647 2.745 o
3 1 5 8.364 9.675 0.289 7.965 o
3 1 6 6.716 7.495 0.149 14.696 o
3 1 7 5.273 5.913 0.159 21.617 o
3 1 8 0.038 0.100 0.189 77.562 o
3 1 9 0.058 0.090 0.159 109.340 o
3 1 10 0.718 0.687 0.119 173.663 o
3 1 11 0.374 0.438 0.229 52.412 o
3 2 3 1.090 1.294 0.259 38.776 o
3 2 4 20.404 20.744 0.557 1.585 o
3 2 5 0.044 0.050 0.169 96.892 o
3 2 6 3.464 3.583 0.189 35.676 o
3 2 7 2.480 2.887 0.139 64.798 o
3 2 8 0.749 0.836 0.109 197.349 o
3 2 9 1.422 1.603 0.139 103.028 o
3 2 10 0.182 0.299 0.229 52.778 o
3 2 11 0.019 0.010 0.050 1119.950 o
3 3 3 27.323 28.299 1.503 0.569 o
3 3 4 0.971 0.806 0.169 88.079 o
3 3 5 5.660 6.311 0.259 14.987 o
3 3 6 8.731 9.964 0.637 4.011 o
3 3 7 0.023 0.080 0.139 142.859 o
3 3 8 1.734 1.752 0.209 51.339 o
3 3 9 0.304 0.309 0.119 190.239 o
3 3 10 0.061 0.040 0.159 109.367 o
3 3 11 0.191 0.189 0.149 123.794 o
3 4 3 0.080 0.159 0.139 142.618 o
3 4 4 0.186 0.169 0.119 192.996 o
3 4 5 0.231 0.259 0.109 227.735 o
3 4 6 1.177 1.493 0.179 73.557 o
3 4 7 1.261 1.423 0.119 137.481 o
3 4 8 4.940 5.256 0.169 23.975 o
3 4 9 0.885 0.926 0.119 162.965 o
3 4 10 0.656 0.657 0.129 152.336 o
3 4 11 0.032 0.020 0.090 345.671 o
3 5 3 12.534 11.815 0.309 4.531 o
3 5 4 8.653 8.182 0.727 3.581 o
3 5 5 0.974 1.194 0.119 153.964 o
3 5 6 0.114 0.149 0.179 86.302 o
3 5 7 4.210 4.310 0.199 27.408 o
3 5 8 0.249 0.199 0.169 96.297 o
3 5 9 0.270 0.328 0.129 162.938 o
3 5 10 0.001 0.050 0.169 96.913 o
3 6 3 0.112 0.179 0.119 193.664 o
3 6 4 3.766 4.201 0.299 19.611 o
3 6 5 0.553 0.717 0.129 154.118 o
3 6 6 4.682 4.927 0.259 19.186 o
3 6 7 2.065 2.110 0.139 81.088 o
3 6 8 1.633 1.732 0.239 41.690 o
3 6 9 1.612 1.812 0.129 105.171 o
3 6 10 0.202 0.209 0.149 123.690 o
3 7 3 6.809 6.390 0.299 11.496 o
3 7 4 0.117 0.139 0.189 77.472 o
3 7 5 0.083 0.388 0.119 192.926 o
3 7 6 1.544 1.692 0.109 134.195 o
3 7 7 0.967 0.956 0.149 108.961 o
3 7 8 0.626 0.707 0.209 61.461 o
3 7 9 0.066 0.129 0.199 69.977 o
3 7 10 0.066 0.209 0.169 96.768 o
3 8 3 2.235 2.518 0.129 78.591 o
3 8 4 2.072 2.100 0.129 87.900 o
3 8 5 9.261 9.576 0.229 7.871 o
3 8 6 0.164 0.219 0.109 229.296 o
3 8 7 2.368 2.628 0.229 37.998 o
3 8 8 0.467 0.538 0.179 84.284 o
3 8 9 0.163 0.468 0.159 108.384 o
3 9 3 1.555 1.732 0.139 97.931 o
3 9 4 0.014 0.189 0.159 109.333 o
3 9 5 0.718 0.796 0.109 199.868 o
3 9 6 1.307 1.473 0.119 134.567 o
3 9 7 0.131 0.159 0.149 124.109 o
3 9 8 0.012 0.050 0.159 109.401 o
3 9 9 0.032 0.229 0.129 165.413 o
3 10 3 0.799 0.766 0.109 196.628 o
3 10 4 4.450 4.957 0.129 30.920 o
3 10 5 1.271 1.274 0.119 140.126 o
3 10 6 2.389 2.717 0.229 37.616 o
3 10 7 0.078 0.199 0.149 124.217 o
3 10 8 0.022 0.080 0.219 57.863 o
3 11 3 0.018 0.040 0.129 165.711 o
3 11 4 3.037 3.096 0.249 29.557 o
3 11 5 0.346 0.348 0.119 189.048 o
3 11 6 0.025 0.119 0.199 70.003 o
3 11 7 0.157 0.189 0.139 142.198 o
3 12 3 0.061 0.209 0.129 165.323 o
3 12 4 0.352 0.319 0.119 189.236 o
3 12 5 0.930 1.035 0.119 159.000 o
3 12 6 0.165 0.229 0.159 108.901 o
3 12 7 0.000 0.020 0.080 437.628 o
3 13 3 5.104 5.246 0.149 24.538 o
3 13 4 0.004 0.050 0.169 96.912 o
3 13 5 0.323 0.209 0.149 122.951 o
3 13 6 0.044 0.119 0.179 86.403 o
3 14 3 0.052 0.070 0.209 63.496 o
3 14 4 0.026 0.149 0.139 142.790 o
3 15 3 0.003 0.060 0.189 77.584 o
4 0 4 4.637 4.310 0.179 27.134 o
4 0 6 0.405 0.637 0.189 75.899 o
4 0 8 0.076 0.159 0.189 77.507 o
4 0 10 0.686 0.806 0.179 81.845 o
4 1 4 0.006 0.050 0.169 96.912 o
4 1 5 3.000 3.116 0.309 21.885 o
4 1 6 0.934 0.995 0.129 139.707 o
4 1 7 0.124 0.139 0.179 86.295 o
4 1 8 0.347 0.468 0.109 221.969 o
4 1 9 0.326 0.428 0.119 188.651 o
4 1 10 0.412 0.547 0.129 158.939 o
4 2 4 0.966 0.946 0.109 183.322 o
4 2 5 1.298 1.463 0.119 135.155 o
4 2 6 1.195 1.185 0.239 44.810 o
4 2 7 0.003 0.119 0.179 86.431 o
4 2 8 1.416 1.523 0.119 129.192 o
4 2 9 0.197 0.269 0.139 141.687 o
4 2 10 0.099 0.438 0.319 27.311 o
4 3 4 1.461 1.563 0.309 26.978 o
4 3 5 0.043 0.040 0.169 96.896 o
4 3 6 0.095 0.070 0.189 77.531 o
4 3 7 0.160 0.159 0.159 109.034 o
4 3 8 0.025 0.109 0.179 86.421 o
4 3 9 0.738 0.936 0.119 168.417 o
4 3 10 0.062 0.060 0.199 69.999 o
4 4 4 0.042 0.119 0.189 77.553 o
4 4 5 0.015 0.109 0.169 96.892 o
4 4 6 0.106 0.219 0.149 124.091 o
4 4 7 3.748 3.952 0.129 41.682 o
4 4 8 0.048 0.030 0.109 231.361 o
4 4 9 0.897 0.866 0.119 163.639 o
4 4 10 0.042 0.080 0.229 52.937 o
4 5 4 7.509 8.909 0.747 3.581 o
4 5 5 0.774 1.224 0.368 20.028 o
4 5 6 0.573 0.677 0.119 178.678 o
4 5 7 0.277 0.418 0.109 224.753 o
4 5 8 0.704 0.707 0.119 173.776 o
4 5 9 0.005 0.109 0.189 77.575 o
4 6 4 1.845 1.841 0.129 97.795 o
4 6 5 0.889 0.717 0.129 145.202 o
4 6 6 1.092 1.264 0.109 168.112 o
4 6 7 0.297 0.319 0.119 190.275 o
4 6 8 1.392 1.782 0.129 112.481 o
4 6 9 0.047 0.119 0.199 69.992 o
4 7 4 2.150 2.240 0.109 98.246 o
4 7 5 2.314 2.469 0.229 38.781 o
4 7 6 2.738 2.996 0.338 19.567 o
4 7 7 0.664 0.737 0.119 174.649 o
4 7 8 0.015 0.080 0.229 52.942 o
4 7 9 0.140 0.109 0.219 57.800 o
4 8 4 2.596 2.598 0.119 74.315 o
4 8 5 0.064 0.129 0.139 142.716 o
4 8 6 0.455 0.358 0.129 159.893 o
4 8 7 0.303 0.378 0.129 162.171 o
4 8 8 0.030 0.030 0.129 165.703 o
4 9 4 1.337 1.543 0.179 71.402 o
4 9 5 3.992 4.380 0.139 35.784 o
4 9 6 0.669 0.796 0.189 74.003 o
4 9 7 0.562 0.677 0.129 154.365 o
4 9 8 0.097 0.100 0.209 63.465 o
4 10 4 0.042 0.080 0.209 63.497 o
4 10 5 0.772 0.776 0.249 43.380 o
4 10 6 0.022 0.070 0.209 63.505 o
4 10 7 0.011 0.050 0.179 86.442 o
4 11 4 1.109 1.194 0.149 103.852 o
4 11 5 0.228 0.378 0.249 44.623 o
4 11 6 0.737 1.035 0.249 43.146 o
4 12 4 0.756 0.776 0.119 170.701 o
4 12 5 0.003 0.129 0.179 86.428 o
4 13 4 0.023 0.109 0.199 70.006 o
5 0 5 0.133 0.189 0.169 96.650 o
5 0 7 0.003 0.109 0.219 57.864 o
5 0 9 0.395 0.398 0.189 76.441 o
5 1 5 4.748 3.713 0.209 25.220 o
5 1 6 2.976 2.638 0.239 32.600 o
5 1 7 0.213 0.209 0.129 164.232 o
5 1 8 0.240 0.348 0.129 163.191 o
5 1 9 0.003 0.109 0.179 86.434 o
5 2 5 0.025 0.090 0.209 63.502 o
5 2 6 0.006 0.169 0.159 109.355 o
5 2 7 0.339 0.249 0.129 162.567 o
5 2 8 0.068 0.119 0.199 69.978 o
5 2 9 0.049 0.219 0.159 109.245 o
5 3 5 2.257 2.250 0.189 52.202 o
5 3 6 0.190 0.279 0.139 141.698 o
5 3 7 0.916 0.966 0.169 87.794 o
5 3 8 0.186 0.199 0.149 123.794 o
5 3 9 0.160 0.319 0.139 141.773 o
5 4 5 0.458 0.557 0.109 216.570 o
5 4 6 0.485 0.438 0.119 184.750 o
5 4 7 0.000 0.199 0.139 142.791 o
5 4 8 0.315 0.179 0.199 69.585 o
5 4 9 0.017 0.080 0.219 57.864 o
5 5 5 0.027 0.050 0.149 124.462 o
5 5 6 0.082 0.070 0.199 69.986 o
5 5 7 0.264 0.388 0.129 162.638 o
5 5 8 0.251 0.358 0.129 162.991 o
5 6 5 0.011 0.149 0.149 124.422 o
5 6 6 0.152 0.289 0.129 164.421 o
5 6 7 0.426 0.468 0.169 94.723 o
5 6 8 0.004 0.179 0.199 69.999 o
5 7 5 1.107 0.906 0.189 70.312 o
5 7 6 0.095 0.070 0.199 69.977 o
5 7 7 0.000 0.090 0.189 77.580 o
5 7 8 0.074 0.279 0.139 142.394 o
5 8 5 0.471 0.557 0.119 183.520 o
5 8 6 0.089 0.189 0.189 77.477 o
5 8 7 0.051 0.159 0.199 69.977 o
5 9 5 0.017 0.040 0.149 124.472 o
5 9 6 0.541 0.667 0.129 154.966 o
5 9 7 0.001 0.060 0.149 124.476 o
5 10 5 0.001 0.169 0.199 70.002 o
5 10 6 0.223 0.378 0.159 108.307 o
5 11 5 0.589 0.687 0.159 103.993 o
6 0 6 2.340 2.279 0.179 54.931 o
6 0 8 0.008 0.050 0.209 63.510 o
6 1 6 0.005 0.219 0.129 165.537 o
6 1 7 0.064 0.169 0.149 124.296 o
6 1 8 0.037 0.050 0.169 96.897 o
6 2 6 0.015 0.010 0.050 1120.090 o
6 2 7 0.355 0.488 0.129 160.497 o
6 2 8 0.000 0.219 0.149 124.382 o
6 3 6 0.279 0.408 0.129 162.296 o
6 3 7 0.433 0.358 0.129 160.285 o
6 4 6 0.405 0.508 0.129 159.450 o
6 4 7 0.019 0.040 0.129 165.711 o
6 5 6 0.373 0.279 0.139 140.023 o
6 5 7 0.098 0.090 0.239 48.600 o
6 6 6 0.174 0.169 0.199 69.843 o
6 6 7 0.011 0.259 0.169 96.816 o
6 7 6 0.007 0.030 0.129 165.726 o
6 8 6 0.047 0.169 0.169 96.828 o
;
_iucr_refine_instructions_details
;
TITL ethox
CELL 0.71068 4.633 8.4 6.577 90 100.37 90
ZERR 4 0.005 0.001 0.003 0 0.06 0
LATT 1
SYMM 0.5+X,0.5-Y,0.5+Z
SFAC C H O
UNIT 8 16 4

L.S. 10
PLAN  10
BOND $H
LIST 6
fmap 2
acta 
WGHT 0.0585 0
FVAR 1.002311
REM <olex2.extras>
REM <HklSrc "%.\\epoxide.hkl">
REM </olex2.extras>

O1    3     0.11697  0.83091  0.12413  11.00000  0.03465  0.02651  0.03008 =
 -0.00485  0.01035  0.00253 
C2    1     0.14828  0.93864  0.29602  11.00000  0.03381  0.02520  0.02731 =
 -0.00238  0.00579  0.00078 
H2a   2     0.26360  0.89501  0.42704  11.00000  0.04564 
H2b   2     0.16832  1.05255  0.26539  11.00000  0.04269 
C3    1    -0.13426  0.86471  0.21833  11.00000  0.03167  0.03395  0.03447 =
 0.00001  0.01242 -0.00312 
H3a   2    -0.28884  0.92116  0.13246  11.00000  0.05376 
H3b   2    -0.19714  0.77679  0.29298  11.00000  0.05396 
HKLF 4

END
Q1 1 -0.041667 0.922222 0.277778 11 0.05 0.23
Q2 1 0.208333 1.044444 0.194444 11 0.05 0.19
Q3 1 -0.125 0.811111 0.25 11 0.05 0.19
Q4 1 0.041667 0.7 0.083333 11 0.05 0.18
Q5 1 -0.208333 0.811111 0.472222 11 0.05 0.17
Q6 1 -0.333333 0.833333 -0.055556 11 0.05 0.17
Q7 1 0.375 0.9 0.361111 11 0.05 0.17
Q8 1 0.375 1.111111 0.277778 11 0.05 0.17
Q9 1 -0.291667 1 -0.027778 11 0.05 0.17
Q10 1 0.291667 0.844444 0.027778 11 0.05 0.16

  REM The information below was added by Olex2.
  REM
  REM R1 = 0.0355 for 1306 Fo > 4sig(Fo) and 0.0654 for all 2081 data
  REM 44 parameters refined using 0 restraints
  REM Highest difference peak 0.2329, deepest hole -0.3420
  REM Mean Shift 0.0001, Max Shift 0.0008.

  REM +++ Tabular Listing of Refinement Information +++
  REM R1_all = 0.0654
  REM R1_gt = 0.0355
  REM wR_ref = 0.1067
  REM GOOF = 0.9251
  REM Shift_max = 0.0008
  REM Shift_mean = 0.0001
  REM Reflections_all = 2081
  REM Reflections_gt = 1306
  REM Parameters = 44
  REM Hole = -0.3420
  REM Peak = 0.2329
  REM Flack = n/a

  
;
_olex2_submission_special_instructions 'No special instructions were received'
